REMARK  Name = claudia.xyz
REMARK  2 active torsions:
REMARK  status: ('A' for Active; 'I' for Inactive)
REMARK    1  A    between atoms: C_6  and  C_7
REMARK    2  A    between atoms: C_7  and  C_8
REMARK                            x       y       z     vdW  Elec       q    Type
REMARK                         _______ _______ _______ _____ _____    ______ ____
ROOT
ATOM      1  O   UNL     1       2.086   0.793  -0.138  0.00  0.00    +0.000 OA
ATOM      2  C   UNL     1       0.980   0.293  -0.061  0.00  0.00    +0.000 C 
ATOM      3  N   UNL     1      -0.196   0.956   0.023  0.00  0.00    +0.000 N 
ATOM      4  C   UNL     1      -1.243   0.087   0.053  0.00  0.00    +0.000 C 
ATOM      5  O   UNL     1      -2.420   0.406   0.123  0.00  0.00    +0.000 OA
ATOM      6  C   UNL     1      -0.699  -1.340  -0.015  0.00  0.00    +0.000 C 
ATOM      7  N   UNL     1       0.719  -1.055  -0.055  0.00  0.00    +0.000 N 
ATOM      8  H   UNL     1      -0.283   1.936   0.058  0.00  0.00    +0.000 HD
ATOM      9  H   UNL     1       1.417  -1.748  -0.075  0.00  0.00    +0.000 HD
ENDROOT
BRANCH   6  10
ATOM     10  C   UNL     1      -1.135  -2.138   1.209  0.00  0.00    +0.000 C 
BRANCH  10  11
ATOM     11  C   UNL     1      -0.604  -3.544   1.181  0.00  0.00    +0.000 A 
ATOM     12  C   UNL     1       0.562  -4.028   1.742  0.00  0.00    +0.000 A 
ATOM     13  C   UNL     1       0.738  -5.422   1.505  0.00  0.00    +0.000 A 
ATOM     14  C   UNL     1      -0.302  -5.956   0.778  0.00  0.00    +0.000 A 
ATOM     15  S   UNL     1      -1.478  -4.781   0.381  0.00  0.00    +0.000 S 
ENDBRANCH  10  11
ENDBRANCH   6  10
TORSDOF 2
