REMARK  Name = claudia.xyz
REMARK  2 active torsions:
REMARK  status: ('A' for Active; 'I' for Inactive)
REMARK    1  A    between atoms: C_2  and  C_3
REMARK    2  A    between atoms: C_6  and  C_7
REMARK                            x       y       z     vdW  Elec       q    Type
REMARK                         _______ _______ _______ _____ _____    ______ ____
ROOT
ATOM      1  C   UNL     1       3.819  -0.077   0.168  0.00  0.00    +0.000 C 
ATOM      2  C   UNL     1       4.610  -0.089  -0.907  0.00  0.00    +0.000 C 
ATOM      3  N   UNL     1       4.243  -0.075  -2.225  0.00  0.00    +0.000 N 
ATOM      4  C   UNL     1       5.375  -0.096  -3.017  0.00  0.00    +0.000 C 
ATOM      5  S   UNL     1       5.396  -0.089  -4.665  0.00  0.00    +0.000 S 
ATOM      6  N   UNL     1       6.473  -0.123  -2.197  0.00  0.00    +0.000 N 
ATOM      7  C   UNL     1       6.107  -0.121  -0.877  0.00  0.00    +0.000 C 
ATOM      8  O   UNL     1       6.825  -0.141   0.103  0.00  0.00    +0.000 OA
ATOM      9  H   UNL     1       3.316  -0.053  -2.557  0.00  0.00    +0.000 HD
ATOM     10  H   UNL     1       7.405  -0.141  -2.516  0.00  0.00    +0.000 HD
ENDROOT
BRANCH   1  14
ATOM     11  C   UNL     1      -0.438   0.015  -0.070  0.00  0.00    +0.000 A 
ATOM     12  C   UNL     1       0.237  -1.210  -0.030  0.00  0.00    +0.000 A 
ATOM     13  C   UNL     1       1.632  -1.239   0.051  0.00  0.00    +0.000 A 
ATOM     14  C   UNL     1       2.360  -0.045   0.095  0.00  0.00    +0.000 A 
ATOM     15  C   UNL     1       1.684   1.179   0.050  0.00  0.00    +0.000 A 
ATOM     16  C   UNL     1       0.289   1.209  -0.031  0.00  0.00    +0.000 A 
BRANCH  11  18
ATOM     17  N   UNL     1      -3.028   0.070  -0.219  0.00  0.00    +0.000 NA
ATOM     18  C   UNL     1      -1.870   0.045  -0.151  0.00  0.00    +0.000 C 
ENDBRANCH  11  18
ENDBRANCH   1  14
TORSDOF 2
