REMARK  Name = claudia.xyz
REMARK  2 active torsions:
REMARK  status: ('A' for Active; 'I' for Inactive)
REMARK    1  A    between atoms: C_6  and  C_7
REMARK    2  A    between atoms: C_7  and  C_8
REMARK                            x       y       z     vdW  Elec       q    Type
REMARK                         _______ _______ _______ _____ _____    ______ ____
ROOT
ATOM      1  O   UNL     1       2.191   0.484   0.639  0.00  0.00    +0.000 OA
ATOM      2  C   UNL     1       1.060   0.090   0.421  0.00  0.00    +0.000 C 
ATOM      3  N   UNL     1      -0.056   0.852   0.352  0.00  0.00    +0.000 N 
ATOM      4  C   UNL     1      -1.162   0.081   0.162  0.00  0.00    +0.000 C 
ATOM      5  O   UNL     1      -2.310   0.493   0.093  0.00  0.00    +0.000 OA
ATOM      6  C   UNL     1      -0.722  -1.381   0.087  0.00  0.00    +0.000 C 
ATOM      7  N   UNL     1       0.705  -1.226   0.237  0.00  0.00    +0.000 N 
ATOM      8  H   UNL     1      -0.067   1.834   0.429  0.00  0.00    +0.000 HD
ATOM      9  H   UNL     1       1.347  -1.972   0.211  0.00  0.00    +0.000 HD
ENDROOT
BRANCH   6  10
ATOM     10  C   UNL     1      -1.168  -2.086  -1.193  0.00  0.00    +0.000 C 
BRANCH  10  11
ATOM     11  C   UNL     1      -0.693  -1.452  -2.481  0.00  0.00    +0.000 A 
ATOM     12  C   UNL     1       0.537  -1.817  -3.045  0.00  0.00    +0.000 A 
ATOM     13  C   UNL     1       0.980  -1.219  -4.225  0.00  0.00    +0.000 A 
ATOM     14  C   UNL     1       0.199  -0.251  -4.854  0.00  0.00    +0.000 A 
ATOM     15  C   UNL     1      -1.025   0.120  -4.302  0.00  0.00    +0.000 A 
ATOM     16  C   UNL     1      -1.470  -0.477  -3.122  0.00  0.00    +0.000 A 
ENDBRANCH  10  11
ENDBRANCH   6  10
TORSDOF 2
