REMARK  Name = claudia.xyz
REMARK  1 active torsions:
REMARK  status: ('A' for Active; 'I' for Inactive)
REMARK    1  A    between atoms: C_7  and  C_8
REMARK                            x       y       z     vdW  Elec       q    Type
REMARK                         _______ _______ _______ _____ _____    ______ ____
ROOT
ATOM      1  O   UNL     1       1.884  -0.039   2.328  0.00  0.00    +0.000 OA
ATOM      2  C   UNL     1       0.846   0.019   1.694  0.00  0.00    +0.000 C 
ATOM      3  N   UNL     1       0.092  -1.047   1.275  0.00  0.00    +0.000 N 
ATOM      4  C   UNL     1      -1.015  -0.639   0.586  0.00  0.00    +0.000 C 
ATOM      5  O   UNL     1      -1.883  -1.325   0.083  0.00  0.00    +0.000 OA
ATOM      6  C   UNL     1      -0.924   0.853   0.585  0.00  0.00    +0.000 C 
ATOM      7  C   UNL     1      -1.803   1.681   0.018  0.00  0.00    +0.000 C 
ATOM      8  N   UNL     1       0.215   1.173   1.266  0.00  0.00    +0.000 N 
ATOM      9  H   UNL     1       0.320  -1.989   1.449  0.00  0.00    +0.000 HD
ATOM     10  H   UNL     1       0.538   2.089   1.429  0.00  0.00    +0.000 HD
ENDROOT
BRANCH   7  11
ATOM     11  C   UNL     1      -1.666   3.137   0.046  0.00  0.00    +0.000 A 
ATOM     12  C   UNL     1      -0.950   3.793  -0.957  0.00  0.00    +0.000 A 
ATOM     13  C   UNL     1      -0.800   5.181  -0.918  0.00  0.00    +0.000 A 
ATOM     14  C   UNL     1      -1.362   5.934   0.125  0.00  0.00    +0.000 A 
ATOM     15  C   UNL     1      -1.220   7.330   0.178  0.00  0.00    +0.000 A 
ATOM     16  C   UNL     1      -1.784   8.065   1.222  0.00  0.00    +0.000 A 
ATOM     17  C   UNL     1      -2.497   7.415   2.225  0.00  0.00    +0.000 A 
ATOM     18  C   UNL     1      -2.647   6.028   2.187  0.00  0.00    +0.000 A 
ATOM     19  C   UNL     1      -2.086   5.273   1.144  0.00  0.00    +0.000 A 
ATOM     20  C   UNL     1      -2.229   3.876   1.092  0.00  0.00    +0.000 A 
ENDBRANCH   7  11
TORSDOF 1
