REMARK  Name = claudia.xyz
REMARK  2 active torsions:
REMARK  status: ('A' for Active; 'I' for Inactive)
REMARK    1  A    between atoms: C_1  and  N_2
REMARK    2  A    between atoms: C_4  and  C_5
REMARK                            x       y       z     vdW  Elec       q    Type
REMARK                         _______ _______ _______ _____ _____    ______ ____
ROOT
ATOM      1  C   UNL     1       2.414   1.605  -0.467  0.00  0.00    +0.000 C 
ATOM      2  N   UNL     1       1.646   0.404  -0.225  0.00  0.00    +0.000 N 
ATOM      3  C   UNL     1       2.164  -0.864  -0.218  0.00  0.00    +0.000 A 
ATOM      4  C   UNL     1       1.138  -1.737   0.066  0.00  0.00    +0.000 A 
ATOM      5  C   UNL     1      -0.063  -0.975   0.188  0.00  0.00    +0.000 A 
ATOM      6  C   UNL     1      -1.421  -1.291   0.414  0.00  0.00    +0.000 A 
ATOM      7  C   UNL     1      -2.371  -0.267   0.491  0.00  0.00    +0.000 A 
ATOM      8  C   UNL     1      -1.991   1.062   0.339  0.00  0.00    +0.000 A 
ATOM      9  C   UNL     1      -0.658   1.405   0.097  0.00  0.00    +0.000 A 
ATOM     10  C   UNL     1       0.288   0.369   0.019  0.00  0.00    +0.000 A 
ENDROOT
BRANCH   4  11
ATOM     11  C   UNL     1       1.325  -3.147   0.172  0.00  0.00    +0.000 C 
ATOM     12  C   UNL     1       0.900  -3.926   1.171  0.00  0.00    +0.000 C 
ATOM     13  N   UNL     1       0.227  -3.564   2.303  0.00  0.00    +0.000 N 
ATOM     14  C   UNL     1       0.003  -4.677   3.092  0.00  0.00    +0.000 C 
ATOM     15  O   UNL     1      -0.561  -4.691   4.171  0.00  0.00    +0.000 OA
ATOM     16  N   UNL     1       0.535  -5.761   2.443  0.00  0.00    +0.000 N 
ATOM     17  C   UNL     1       1.119  -5.401   1.261  0.00  0.00    +0.000 C 
ATOM     18  O   UNL     1       1.693  -6.113   0.461  0.00  0.00    +0.000 OA
ATOM     19  H   UNL     1      -0.055  -2.647   2.524  0.00  0.00    +0.000 HD
ATOM     20  H   UNL     1       0.502  -6.684   2.786  0.00  0.00    +0.000 HD
ENDBRANCH   4  11
TORSDOF 1
