REMARK  Name = claudia.xyz
REMARK  2 active torsions:
REMARK  status: ('A' for Active; 'I' for Inactive)
REMARK    1  A    between atoms: N_1  and  C_2
REMARK    2  A    between atoms: C_5  and  C_6
REMARK                            x       y       z     vdW  Elec       q    Type
REMARK                         _______ _______ _______ _____ _____    ______ ____
ROOT
ATOM      1  C   UNL     1       0.974  -0.010   0.039  0.00  0.00    +0.000 A 
ATOM      2  C   UNL     1       0.278   1.200  -0.011  0.00  0.00    +0.000 A 
ATOM      3  C   UNL     1      -1.120   1.221  -0.031  0.00  0.00    +0.000 A 
ATOM      4  C   UNL     1      -1.840   0.024  -0.046  0.00  0.00    +0.000 A 
ATOM      5  C   UNL     1      -1.148  -1.190  -0.058  0.00  0.00    +0.000 A 
ATOM      6  C   UNL     1       0.250  -1.201  -0.038  0.00  0.00    +0.000 A 
ENDROOT
BRANCH   4   7
ATOM      7  C   UNL     1      -3.302   0.042  -0.079  0.00  0.00    +0.000 C 
ATOM      8  C   UNL     1      -4.043   0.052  -1.194  0.00  0.00    +0.000 C 
ATOM      9  S   UNL     1      -3.502   0.047  -2.834  0.00  0.00    +0.000 S 
ATOM     10  C   UNL     1      -5.135   0.069  -3.459  0.00  0.00    +0.000 C 
ATOM     11  S   UNL     1      -5.582   0.076  -5.053  0.00  0.00    +0.000 S 
ATOM     12  N   UNL     1      -6.023   0.079  -2.427  0.00  0.00    +0.000 N 
ATOM     13  C   UNL     1      -5.529   0.071  -1.153  0.00  0.00    +0.000 C 
ATOM     14  O   UNL     1      -6.212   0.078  -0.142  0.00  0.00    +0.000 OA
ATOM     15  H   UNL     1      -6.993   0.091  -2.594  0.00  0.00    +0.000 HD
ENDBRANCH   4   7
BRANCH   1  16
ATOM     16  N   UNL     1       2.370  -0.024  -0.069  0.00  0.00    +0.000 N 
ATOM     17  H   UNL     1       2.857  -0.879  -0.033  0.00  0.00    +0.000 HD
ATOM     18  H   UNL     1       2.864   0.820  -0.181  0.00  0.00    +0.000 HD
ENDBRANCH   1  16
TORSDOF 2
