REMARK  Name = claudia.xyz
REMARK  3 active torsions:
REMARK  status: ('A' for Active; 'I' for Inactive)
REMARK    1  A    between atoms: C_2  and  C_4
REMARK    2  A    between atoms: C_4  and  C_5
REMARK    3  A    between atoms: C_5  and  C_6
REMARK                            x       y       z     vdW  Elec       q    Type
REMARK                         _______ _______ _______ _____ _____    ______ ____
ROOT
ATOM      1  C   UNL     1       5.378   1.159  -1.957  0.00  0.00    +0.000 C 
ATOM      2  N   UNL     1       5.346   2.573  -1.641  0.00  0.00    +0.000 N 
ATOM      3  C   UNL     1       4.555   2.839  -0.552  0.00  0.00    +0.000 C 
ATOM      4  S   UNL     1       4.269   4.339   0.066  0.00  0.00    +0.000 S 
ATOM      5  N   UNL     1       4.048   1.677  -0.080  0.00  0.00    +0.000 N 
ATOM      6  C   UNL     1       4.468   0.626  -0.840  0.00  0.00    +0.000 C 
ATOM      7  O   UNL     1       4.159  -0.542  -0.658  0.00  0.00    +0.000 OA
ATOM      8  H   UNL     1       5.835   3.261  -2.147  0.00  0.00    +0.000 HD
ATOM      9  H   UNL     1       3.457   1.601   0.704  0.00  0.00    +0.000 HD
ENDROOT
BRANCH   1  10
ATOM     10  C   UNL     1       6.792   0.600  -1.894  0.00  0.00    +0.000 C 
BRANCH  10  11
ATOM     11  C   UNL     1       6.867  -0.848  -2.378  0.00  0.00    +0.000 C 
BRANCH  11  13
ATOM     12  N   UNL     1       8.409  -2.671  -2.747  0.00  0.00    +0.000 N 
ATOM     13  C   UNL     1       8.293  -1.351  -2.426  0.00  0.00    +0.000 C 
ATOM     14  O   UNL     1       9.283  -0.659  -2.226  0.00  0.00    +0.000 OA
ATOM     15  H   UNL     1       7.602  -3.212  -2.904  0.00  0.00    +0.000 HD
ATOM     16  H   UNL     1       9.300  -3.083  -2.821  0.00  0.00    +0.000 HD
ENDBRANCH  11  13
ENDBRANCH  10  11
ENDBRANCH   1  10
TORSDOF 3
