REMARK  Name = claudia.xyz
REMARK  3 active torsions:
REMARK  status: ('A' for Active; 'I' for Inactive)
REMARK    1  A    between atoms: C_1  and  C_2
REMARK    2  A    between atoms: C_5  and  C_6
REMARK    3  A    between atoms: C_9  and  O_10
REMARK                            x       y       z     vdW  Elec       q    Type
REMARK                         _______ _______ _______ _____ _____    ______ ____
ROOT
ATOM      1  C   UNL     1      -3.177   0.307  -0.033  0.00  0.00    +0.000 C 
ATOM      2  C   UNL     1      -3.905   0.845  -1.021  0.00  0.00    +0.000 C 
ATOM      3  S   UNL     1      -3.356   1.491  -2.517  0.00  0.00    +0.000 S 
ATOM      4  C   UNL     1      -5.005   1.824  -2.933  0.00  0.00    +0.000 C 
ATOM      5  N   UNL     1      -5.924   1.513  -2.091  0.00  0.00    +0.000 NA
ATOM      6  C   UNL     1      -5.399   0.941  -0.954  0.00  0.00    +0.000 C 
ATOM      7  O   UNL     1      -6.051   0.550   0.003  0.00  0.00    +0.000 OA
ENDROOT
BRANCH   1  12
ATOM      8  C   UNL     1       2.566  -0.309   0.027  0.00  0.00    +0.000 C 
ATOM      9  C   UNL     1       1.076  -0.139  -0.018  0.00  0.00    +0.000 A 
ATOM     10  C   UNL     1       0.501   1.127   0.133  0.00  0.00    +0.000 A 
ATOM     11  C   UNL     1      -0.888   1.280   0.124  0.00  0.00    +0.000 A 
ATOM     12  C   UNL     1      -1.719   0.166  -0.029  0.00  0.00    +0.000 A 
ATOM     13  C   UNL     1      -1.148  -1.103  -0.157  0.00  0.00    +0.000 A 
ATOM     14  C   UNL     1       0.241  -1.255  -0.149  0.00  0.00    +0.000 A 
ENDBRANCH   1  12
BRANCH   4  15
ATOM     15  O   UNL     1      -5.295   2.393  -4.112  0.00  0.00    +0.000 OA
ATOM     16  H   UNL     1      -4.606   2.610  -4.709  0.00  0.00    +0.000 HD
ENDBRANCH   4  15
TORSDOF 2
