REMARK  Name = claudia.xyz
REMARK  1 active torsions:
REMARK  status: ('A' for Active; 'I' for Inactive)
REMARK    1  A    between atoms: C_8  and  C_9
REMARK                            x       y       z     vdW  Elec       q    Type
REMARK                         _______ _______ _______ _____ _____    ______ ____
ROOT
ATOM      1  C   UNL     1      -2.751   2.720   0.011  0.00  0.00    +0.000 A 
ATOM      2  C   UNL     1      -2.242   3.478  -1.045  0.00  0.00    +0.000 A 
ATOM      3  C   UNL     1      -2.410   4.865  -1.057  0.00  0.00    +0.000 A 
ATOM      4  C   UNL     1      -3.089   5.515  -0.014  0.00  0.00    +0.000 A 
ATOM      5  C   UNL     1      -3.264   6.908  -0.012  0.00  0.00    +0.000 A 
ATOM      6  C   UNL     1      -3.940   7.540   1.032  0.00  0.00    +0.000 A 
ATOM      7  C   UNL     1      -4.450   6.788   2.086  0.00  0.00    +0.000 A 
ATOM      8  C   UNL     1      -4.285   5.402   2.099  0.00  0.00    +0.000 A 
ATOM      9  C   UNL     1      -3.606   4.750   1.057  0.00  0.00    +0.000 A 
ATOM     10  C   UNL     1      -3.431   3.356   1.056  0.00  0.00    +0.000 A 
ENDROOT
BRANCH   1  18
ATOM     11  O   UNL     1      -2.201  -1.620   0.062  0.00  0.00    +0.000 OA
ATOM     12  C   UNL     1      -1.398  -0.846   0.557  0.00  0.00    +0.000 C 
ATOM     13  N   UNL     1      -0.240  -1.216   1.180  0.00  0.00    +0.000 N 
ATOM     14  C   UNL     1       0.559  -0.236   1.685  0.00  0.00    +0.000 C 
ATOM     15  S   UNL     1       1.990  -0.529   2.464  0.00  0.00    +0.000 S 
ATOM     16  S   UNL     1      -0.159   1.328   1.378  0.00  0.00    +0.000 S 
ATOM     17  C   UNL     1      -1.522   0.636   0.576  0.00  0.00    +0.000 C 
ATOM     18  C   UNL     1      -2.568   1.268   0.029  0.00  0.00    +0.000 C 
ATOM     19  H   UNL     1       0.010  -2.165   1.263  0.00  0.00    +0.000 HD
ENDBRANCH   1  18
TORSDOF 1
