REMARK  Name = claudia.xyz
REMARK  1 active torsions:
REMARK  status: ('A' for Active; 'I' for Inactive)
REMARK    1  A    between atoms: C_7  and  C_8
REMARK                            x       y       z     vdW  Elec       q    Type
REMARK                         _______ _______ _______ _____ _____    ______ ____
ROOT
ATOM      1  O   UNL     1       2.538  -0.193   0.002  0.00  0.00    +0.000 OA
ATOM      2  C   UNL     1       1.326  -0.080   0.016  0.00  0.00    +0.000 C 
ATOM      3  N   UNL     1       0.419  -1.109   0.041  0.00  0.00    +0.000 N 
ATOM      4  C   UNL     1      -0.866  -0.644   0.052  0.00  0.00    +0.000 C 
ATOM      5  O   UNL     1      -1.898  -1.286   0.074  0.00  0.00    +0.000 OA
ATOM      6  C   UNL     1      -0.727   0.842   0.031  0.00  0.00    +0.000 C 
ATOM      7  C   UNL     1      -1.749   1.701   0.035  0.00  0.00    +0.000 C 
ATOM      8  N   UNL     1       0.613   1.104   0.010  0.00  0.00    +0.000 N 
ATOM      9  H   UNL     1       0.663  -2.063   0.050  0.00  0.00    +0.000 HD
ATOM     10  H   UNL     1       1.013   2.003  -0.008  0.00  0.00    +0.000 HD
ENDROOT
BRANCH   7  11
ATOM     11  C   UNL     1      -1.574   3.113   0.014  0.00  0.00    +0.000 A 
ATOM     12  C   UNL     1      -2.550   4.103   0.028  0.00  0.00    +0.000 A 
ATOM     13  C   UNL     1      -1.901   5.360  -0.004  0.00  0.00    +0.000 A 
ATOM     14  C   UNL     1      -0.559   5.086  -0.036  0.00  0.00    +0.000 A 
ATOM     15  O   UNL     1      -0.349   3.748  -0.025  0.00  0.00    +0.000 OA
ENDBRANCH   7  11
TORSDOF 1
