REMARK  Name = claudia.xyz
REMARK  3 active torsions:
REMARK  status: ('A' for Active; 'I' for Inactive)
REMARK    1  A    between atoms: C_8  and  C_9
REMARK    2  A    between atoms: C_12  and  O_13
REMARK    3  A    between atoms: C_14  and  O_15
REMARK                            x       y       z     vdW  Elec       q    Type
REMARK                         _______ _______ _______ _____ _____    ______ ____
ROOT
ATOM      1  O   UNL     1      -2.192  -1.393   0.011  0.00  0.00    +0.000 OA
ATOM      2  C   UNL     1      -1.396  -0.644   0.540  0.00  0.00    +0.000 C 
ATOM      3  N   UNL     1      -0.288  -0.971   1.278  0.00  0.00    +0.000 N 
ATOM      4  C   UNL     1       0.374   0.152   1.703  0.00  0.00    +0.000 C 
ATOM      5  S   UNL     1       1.751   0.179   2.609  0.00  0.00    +0.000 S 
ATOM      6  N   UNL     1      -0.310   1.260   1.239  0.00  0.00    +0.000 N 
ATOM      7  C   UNL     1      -1.401   0.853   0.521  0.00  0.00    +0.000 C 
ATOM      8  C   UNL     1      -2.308   1.613  -0.096  0.00  0.00    +0.000 C 
ATOM      9  H   UNL     1      -0.005  -1.892   1.478  0.00  0.00    +0.000 HD
ATOM     10  H   UNL     1      -0.052   2.196   1.400  0.00  0.00    +0.000 HD
ENDROOT
BRANCH   8  11
ATOM     11  C   UNL     1      -2.263   3.075  -0.096  0.00  0.00    +0.000 A 
ATOM     12  C   UNL     1      -1.650   3.756  -1.159  0.00  0.00    +0.000 A 
ATOM     13  C   UNL     1      -1.581   5.153  -1.162  0.00  0.00    +0.000 A 
ATOM     14  C   UNL     1      -2.126   5.859  -0.097  0.00  0.00    +0.000 A 
ATOM     15  C   UNL     1      -2.733   5.183   0.959  0.00  0.00    +0.000 A 
ATOM     16  C   UNL     1      -2.807   3.797   0.972  0.00  0.00    +0.000 A 
BRANCH  14  17
ATOM     17  O   UNL     1      -2.090   7.224  -0.040  0.00  0.00    +0.000 OA
ATOM     18  H   UNL     1      -1.690   7.712  -0.733  0.00  0.00    +0.000 HD
ENDBRANCH  14  17
BRANCH  15  19
ATOM     19  O   UNL     1      -3.264   5.887   2.002  0.00  0.00    +0.000 OA
ATOM     20  H   UNL     1      -3.221   6.823   2.006  0.00  0.00    +0.000 HD
ENDBRANCH  15  19
ENDBRANCH   8  11
TORSDOF 3
