REMARK  Name = claudia.xyz
REMARK  1 active torsions:
REMARK  status: ('A' for Active; 'I' for Inactive)
REMARK    1  A    between atoms: C_7  and  C_8
REMARK                            x       y       z     vdW  Elec       q    Type
REMARK                         _______ _______ _______ _____ _____    ______ ____
ROOT
ATOM      1  O   UNL     1       2.399  -0.252  -0.705  0.00  0.00    +0.000 OA
ATOM      2  C   UNL     1       1.225  -0.113  -0.413  0.00  0.00    +0.000 C 
ATOM      3  N   UNL     1       0.334  -1.114  -0.127  0.00  0.00    +0.000 N 
ATOM      4  C   UNL     1      -0.895  -0.612   0.195  0.00  0.00    +0.000 C 
ATOM      5  O   UNL     1      -1.894  -1.224   0.518  0.00  0.00    +0.000 OA
ATOM      6  C   UNL     1      -0.741   0.870   0.069  0.00  0.00    +0.000 C 
ATOM      7  C   UNL     1      -1.719   1.746   0.318  0.00  0.00    +0.000 C 
ATOM      8  N   UNL     1       0.554   1.093  -0.301  0.00  0.00    +0.000 N 
ATOM      9  H   UNL     1       0.552  -2.073  -0.152  0.00  0.00    +0.000 HD
ATOM     10  H   UNL     1       0.952   1.978  -0.464  0.00  0.00    +0.000 HD
ENDROOT
BRANCH   7  11
ATOM     11  C   UNL     1      -1.572   3.155   0.186  0.00  0.00    +0.000 A 
ATOM     12  C   UNL     1      -0.949   3.910  -0.798  0.00  0.00    +0.000 A 
ATOM     13  C   UNL     1      -1.032   5.316  -0.561  0.00  0.00    +0.000 A 
ATOM     14  C   UNL     1      -1.732   5.581   0.586  0.00  0.00    +0.000 A 
ATOM     15 BR   UNL     1      -2.054   7.312   1.224  0.00  0.00    +0.000 Br
ATOM     16  S   UNL     1      -2.291   4.189   1.366  0.00  0.00    +0.000 S 
ENDBRANCH   7  11
TORSDOF 1
