REMARK  Name = claudia.xyz
REMARK  1 active torsions:
REMARK  status: ('A' for Active; 'I' for Inactive)
REMARK    1  A    between atoms: C_8  and  C_9
REMARK                            x       y       z     vdW  Elec       q    Type
REMARK                         _______ _______ _______ _____ _____    ______ ____
ROOT
ATOM      1  O   UNL     1      -2.201  -1.520   0.656  0.00  0.00    +0.000 OA
ATOM      2  C   UNL     1      -1.292  -0.814   0.252  0.00  0.00    +0.000 C 
ATOM      3  N   UNL     1      -0.036  -1.259  -0.048  0.00  0.00    +0.000 N 
ATOM      4  C   UNL     1       0.876  -0.353  -0.491  0.00  0.00    +0.000 C 
ATOM      5  S   UNL     1       2.434  -0.739  -0.894  0.00  0.00    +0.000 S 
ATOM      6  S   UNL     1       0.145   1.233  -0.562  0.00  0.00    +0.000 S 
ATOM      7  C   UNL     1      -1.379   0.653   0.006  0.00  0.00    +0.000 C 
ATOM      8  C   UNL     1      -2.510   1.322   0.266  0.00  0.00    +0.000 C 
ATOM      9  H   UNL     1       0.202  -2.209   0.055  0.00  0.00    +0.000 HD
ENDROOT
BRANCH   8  10
ATOM     10  C   UNL     1      -2.701   2.722   0.086  0.00  0.00    +0.000 A 
ATOM     11  C   UNL     1      -2.301   3.579  -0.930  0.00  0.00    +0.000 A 
ATOM     12  C   UNL     1      -2.716   4.929  -0.724  0.00  0.00    +0.000 A 
ATOM     13  C   UNL     1      -3.435   5.050   0.433  0.00  0.00    +0.000 A 
ATOM     14 CL   UNL     1      -4.129   6.489   1.063  0.00  0.00    +0.000 Cl
ATOM     15  S   UNL     1      -3.627   3.592   1.261  0.00  0.00    +0.000 S 
ENDBRANCH   8  10
TORSDOF 1
