REMARK  Name = claudia.xyz
REMARK  3 active torsions:
REMARK  status: ('A' for Active; 'I' for Inactive)
REMARK    1  A    between atoms: C_1  and  O_2
REMARK    2  A    between atoms: O_2  and  C_3
REMARK    3  A    between atoms: C_6  and  C_7
REMARK                            x       y       z     vdW  Elec       q    Type
REMARK                         _______ _______ _______ _____ _____    ______ ____
ROOT
ATOM      1  C   UNL     1       5.615  -3.962  -2.322  0.00  0.00    +0.000 C 
ATOM      2  C   UNL     1       6.537  -3.777  -3.276  0.00  0.00    +0.000 C 
ATOM      3  S   UNL     1       6.986  -2.311  -4.065  0.00  0.00    +0.000 S 
ATOM      4  C   UNL     1       8.205  -3.111  -5.034  0.00  0.00    +0.000 C 
ATOM      5  O   UNL     1       8.912  -2.550  -5.853  0.00  0.00    +0.000 OA
ATOM      6  N   UNL     1       8.234  -4.434  -4.734  0.00  0.00    +0.000 N 
ATOM      7  C   UNL     1       7.366  -4.898  -3.791  0.00  0.00    +0.000 C 
ATOM      8  O   UNL     1       7.289  -6.061  -3.430  0.00  0.00    +0.000 OA
ATOM      9  H   UNL     1       8.863  -5.042  -5.186  0.00  0.00    +0.000 HD
ENDROOT
BRANCH   1  13
ATOM     10  C   UNL     1       3.118  -0.964  -0.566  0.00  0.00    +0.000 A 
ATOM     11  C   UNL     1       2.973  -1.287  -1.915  0.00  0.00    +0.000 A 
ATOM     12  C   UNL     1       3.789  -2.265  -2.497  0.00  0.00    +0.000 A 
ATOM     13  C   UNL     1       4.762  -2.924  -1.737  0.00  0.00    +0.000 A 
ATOM     14  C   UNL     1       4.897  -2.607  -0.383  0.00  0.00    +0.000 A 
ATOM     15  C   UNL     1       4.081  -1.630   0.194  0.00  0.00    +0.000 A 
BRANCH  10  17
ATOM     16  C   UNL     1       1.409   0.688  -0.613  0.00  0.00    +0.000 C 
ATOM     17  O   UNL     1       2.390  -0.033   0.122  0.00  0.00    +0.000 OA
ENDBRANCH  10  17
ENDBRANCH   1  13
TORSDOF 2
