REMARK  Name = claudia.xyz
REMARK  3 active torsions:
REMARK  status: ('A' for Active; 'I' for Inactive)
REMARK    1  A    between atoms: C_1  and  O_2
REMARK    2  A    between atoms: O_2  and  C_3
REMARK    3  A    between atoms: C_7  and  C_8
REMARK                            x       y       z     vdW  Elec       q    Type
REMARK                         _______ _______ _______ _____ _____    ______ ____
ROOT
ATOM      1  C   UNL     1       6.482  -1.452   1.922  0.00  0.00    +0.000 C 
ATOM      2  C   UNL     1       7.517  -1.275   1.099  0.00  0.00    +0.000 C 
ATOM      3  N   UNL     1       7.522  -1.322  -0.265  0.00  0.00    +0.000 N 
ATOM      4  C   UNL     1       8.803  -1.097  -0.737  0.00  0.00    +0.000 C 
ATOM      5  O   UNL     1       9.144  -1.080  -1.906  0.00  0.00    +0.000 OA
ATOM      6  N   UNL     1       9.618  -0.900   0.348  0.00  0.00    +0.000 N 
ATOM      7  C   UNL     1       8.923  -0.994   1.521  0.00  0.00    +0.000 C 
ATOM      8  O   UNL     1       9.345  -0.881   2.654  0.00  0.00    +0.000 OA
ATOM      9  H   UNL     1       6.733  -1.490  -0.829  0.00  0.00    +0.000 HD
ATOM     10  H   UNL     1      10.583  -0.714   0.289  0.00  0.00    +0.000 HD
ENDROOT
BRANCH   1  15
ATOM     11  C   UNL     1       3.021  -0.974   0.504  0.00  0.00    +0.000 A 
ATOM     12  C   UNL     1       2.552  -2.288   0.508  0.00  0.00    +0.000 A 
ATOM     13  C   UNL     1       3.364  -3.322   0.983  0.00  0.00    +0.000 A 
ATOM     14  C   UNL     1       4.648  -3.048   1.455  0.00  0.00    +0.000 A 
ATOM     15  C   UNL     1       5.126  -1.735   1.455  0.00  0.00    +0.000 A 
ATOM     16  C   UNL     1       4.307  -0.704   0.980  0.00  0.00    +0.000 A 
BRANCH  11  18
ATOM     17  C   UNL     1       1.027  -0.098  -0.453  0.00  0.00    +0.000 C 
ATOM     18  O   UNL     1       2.333   0.124   0.067  0.00  0.00    +0.000 OA
ENDBRANCH  11  18
ENDBRANCH   1  15
TORSDOF 2
