REMARK  Name = claudia.xyz
REMARK  2 active torsions:
REMARK  status: ('A' for Active; 'I' for Inactive)
REMARK    1  A    between atoms: C_1  and  N_2
REMARK    2  A    between atoms: C_4  and  C_5
REMARK                            x       y       z     vdW  Elec       q    Type
REMARK                         _______ _______ _______ _____ _____    ______ ____
ROOT
ATOM      1  C   UNL     1       2.404   1.616  -0.472  0.00  0.00    +0.000 C 
ATOM      2  N   UNL     1       1.653   0.404  -0.234  0.00  0.00    +0.000 N 
ATOM      3  C   UNL     1       2.184  -0.859  -0.252  0.00  0.00    +0.000 A 
ATOM      4  C   UNL     1       1.172  -1.746   0.037  0.00  0.00    +0.000 A 
ATOM      5  C   UNL     1      -0.035  -0.998   0.190  0.00  0.00    +0.000 A 
ATOM      6  C   UNL     1      -1.385  -1.332   0.434  0.00  0.00    +0.000 A 
ATOM      7  C   UNL     1      -2.344  -0.319   0.541  0.00  0.00    +0.000 A 
ATOM      8  C   UNL     1      -1.981   1.016   0.400  0.00  0.00    +0.000 A 
ATOM      9  C   UNL     1      -0.656   1.376   0.140  0.00  0.00    +0.000 A 
ATOM     10  C   UNL     1       0.300   0.352   0.033  0.00  0.00    +0.000 A 
ENDROOT
BRANCH   4  11
ATOM     11  C   UNL     1       1.375  -3.155   0.123  0.00  0.00    +0.000 C 
ATOM     12  C   UNL     1       0.974  -3.950   1.119  0.00  0.00    +0.000 C 
ATOM     13  N   UNL     1       0.316  -3.605   2.269  0.00  0.00    +0.000 N 
ATOM     14  C   UNL     1       0.115  -4.732   3.040  0.00  0.00    +0.000 C 
ATOM     15  S   UNL     1      -0.634  -4.775   4.508  0.00  0.00    +0.000 S 
ATOM     16  N   UNL     1       0.646  -5.807   2.377  0.00  0.00    +0.000 N 
ATOM     17  C   UNL     1       1.207  -5.427   1.185  0.00  0.00    +0.000 C 
ATOM     18  O   UNL     1       1.771  -6.125   0.366  0.00  0.00    +0.000 OA
ATOM     19  H   UNL     1       0.030  -2.693   2.508  0.00  0.00    +0.000 HD
ATOM     20  H   UNL     1       0.628  -6.732   2.712  0.00  0.00    +0.000 HD
ENDBRANCH   4  11
TORSDOF 1
