REMARK  Name = claudia.xyz
REMARK  2 active torsions:
REMARK  status: ('A' for Active; 'I' for Inactive)
REMARK    1  A    between atoms: C_7  and  C_8
REMARK    2  A    between atoms: C_8  and  C_9
REMARK                            x       y       z     vdW  Elec       q    Type
REMARK                         _______ _______ _______ _____ _____    ______ ____
ROOT
ATOM      1  O   UNL     1       2.094  -1.603  -0.307  0.00  0.00    +0.000 OA
ATOM      2  C   UNL     1       1.317  -0.692  -0.056  0.00  0.00    +0.000 C 
ATOM      3  N   UNL     1       0.002  -0.919   0.238  0.00  0.00    +0.000 N 
ATOM      4  C   UNL     1      -0.825   0.140   0.417  0.00  0.00    +0.000 C 
ATOM      5  S   UNL     1      -2.441  -0.011   0.738  0.00  0.00    +0.000 S 
ATOM      6  S   UNL     1       0.054   1.630   0.243  0.00  0.00    +0.000 S 
ATOM      7  C   UNL     1       1.664   0.788  -0.024  0.00  0.00    +0.000 C 
ATOM      8  H   UNL     1      -0.340  -1.839   0.319  0.00  0.00    +0.000 HD
ENDROOT
BRANCH   7   9
ATOM      9  C   UNL     1       2.312   1.256  -1.328  0.00  0.00    +0.000 C 
BRANCH   9  10
ATOM     10  C   UNL     1       3.821   1.172  -1.277  0.00  0.00    +0.000 A 
ATOM     11  C   UNL     1       4.492   0.032  -1.737  0.00  0.00    +0.000 A 
ATOM     12  C   UNL     1       5.884  -0.044  -1.671  0.00  0.00    +0.000 A 
ATOM     13  C   UNL     1       6.618   1.016  -1.144  0.00  0.00    +0.000 A 
ATOM     14  C   UNL     1       5.961   2.154  -0.680  0.00  0.00    +0.000 A 
ATOM     15  C   UNL     1       4.569   2.232  -0.744  0.00  0.00    +0.000 A 
ENDBRANCH   9  10
ENDBRANCH   7   9
TORSDOF 2
