REMARK  Name = claudia.xyz
REMARK  2 active torsions:
REMARK  status: ('A' for Active; 'I' for Inactive)
REMARK    1  A    between atoms: C_7  and  C_8
REMARK    2  A    between atoms: C_11  and  O_12
REMARK                            x       y       z     vdW  Elec       q    Type
REMARK                         _______ _______ _______ _____ _____    ______ ____
ROOT
ATOM      1  O   UNL     1      -2.092  -0.825  -1.748  0.00  0.00    +0.000 OA
ATOM      2  C   UNL     1      -0.998  -0.480  -1.337  0.00  0.00    +0.000 C 
ATOM      3  N   UNL     1       0.035  -1.307  -1.037  0.00  0.00    +0.000 N 
ATOM      4  C   UNL     1       1.192  -0.751  -0.580  0.00  0.00    +0.000 C 
ATOM      5  O   UNL     1       2.192  -1.379  -0.273  0.00  0.00    +0.000 OA
ATOM      6  C   UNL     1       1.046   0.728  -0.511  0.00  0.00    +0.000 C 
ATOM      7  C   UNL     1       2.051   1.518  -0.111  0.00  0.00    +0.000 C 
ATOM      8  S   UNL     1      -0.532   1.182  -1.038  0.00  0.00    +0.000 S 
ATOM      9  H   UNL     1      -0.048  -2.282  -1.148  0.00  0.00    +0.000 HD
ENDROOT
BRANCH   7  10
ATOM     10  C   UNL     1       2.014   2.981  -0.025  0.00  0.00    +0.000 A 
ATOM     11  C   UNL     1       1.180   3.636   0.889  0.00  0.00    +0.000 A 
ATOM     12  C   UNL     1       1.172   5.032   0.965  0.00  0.00    +0.000 A 
ATOM     13  C   UNL     1       2.006   5.767   0.129  0.00  0.00    +0.000 A 
ATOM     14  C   UNL     1       2.848   5.130  -0.775  0.00  0.00    +0.000 A 
ATOM     15  C   UNL     1       2.855   3.736  -0.851  0.00  0.00    +0.000 A 
BRANCH  13  16
ATOM     16  O   UNL     1       2.031   7.129   0.168  0.00  0.00    +0.000 OA
ATOM     17  H   UNL     1       2.601   7.604  -0.404  0.00  0.00    +0.000 HD
ENDBRANCH  13  16
ENDBRANCH   7  10
TORSDOF 2
