REMARK  Name = claudia.xyz
REMARK  2 active torsions:
REMARK  status: ('A' for Active; 'I' for Inactive)
REMARK    1  A    between atoms: C_1  and  N_2
REMARK    2  A    between atoms: C_4  and  C_5
REMARK                            x       y       z     vdW  Elec       q    Type
REMARK                         _______ _______ _______ _____ _____    ______ ____
ROOT
ATOM      1  C   UNL     1       2.398   1.590  -0.373  0.00  0.00    +0.000 C 
ATOM      2  N   UNL     1       1.605   0.397  -0.180  0.00  0.00    +0.000 N 
ATOM      3  C   UNL     1       2.107  -0.878  -0.158  0.00  0.00    +0.000 A 
ATOM      4  C   UNL     1       1.058  -1.739   0.072  0.00  0.00    +0.000 A 
ATOM      5  C   UNL     1      -0.138  -0.963   0.147  0.00  0.00    +0.000 A 
ATOM      6  C   UNL     1      -1.506  -1.265   0.316  0.00  0.00    +0.000 A 
ATOM      7  C   UNL     1      -2.448  -0.231   0.346  0.00  0.00    +0.000 A 
ATOM      8  C   UNL     1      -2.048   1.094   0.204  0.00  0.00    +0.000 A 
ATOM      9  C   UNL     1      -0.702   1.422   0.024  0.00  0.00    +0.000 A 
ATOM     10  C   UNL     1       0.236   0.377  -0.006  0.00  0.00    +0.000 A 
ENDROOT
BRANCH   4  11
ATOM     11  C   UNL     1       1.216  -3.153   0.155  0.00  0.00    +0.000 C 
ATOM     12  C   UNL     1       0.896  -3.944   1.188  0.00  0.00    +0.000 C 
ATOM     13  S   UNL     1       0.234  -3.502   2.720  0.00  0.00    +0.000 S 
ATOM     14  C   UNL     1       0.251  -5.151   3.298  0.00  0.00    +0.000 C 
ATOM     15  S   UNL     1      -0.251  -5.682   4.783  0.00  0.00    +0.000 S 
ATOM     16  N   UNL     1       0.748  -5.972   2.333  0.00  0.00    +0.000 N 
ATOM     17  C   UNL     1       1.133  -5.411   1.147  0.00  0.00    +0.000 C 
ATOM     18  O   UNL     1       1.601  -6.032   0.207  0.00  0.00    +0.000 OA
ATOM     19  H   UNL     1       0.828  -6.941   2.484  0.00  0.00    +0.000 HD
ENDBRANCH   4  11
TORSDOF 1
