REMARK  Name = claudia.xyz
REMARK  2 active torsions:
REMARK  status: ('A' for Active; 'I' for Inactive)
REMARK    1  A    between atoms: C_7  and  C_8
REMARK    2  A    between atoms: C_8  and  C_9
REMARK                            x       y       z     vdW  Elec       q    Type
REMARK                         _______ _______ _______ _____ _____    ______ ____
ROOT
ATOM      1  C   UNL     1       1.917   1.821   1.079  0.00  0.00    +0.000 C 
ENDROOT
BRANCH   1   2
ATOM      2  C   UNL     1       1.540   1.318   2.440  0.00  0.00    +0.000 A 
ATOM      3  C   UNL     1       0.672   0.280   2.718  0.00  0.00    +0.000 A 
ATOM      4  N   UNL     1       0.594   0.138   4.077  0.00  0.00    +0.000 N 
ATOM      5  C   UNL     1       1.392   1.069   4.700  0.00  0.00    +0.000 A 
ATOM      6  C   UNL     1       1.618   1.295   6.063  0.00  0.00    +0.000 A 
ATOM      7  C   UNL     1       2.499   2.322   6.412  0.00  0.00    +0.000 A 
ATOM      8  C   UNL     1       3.128   3.089   5.435  0.00  0.00    +0.000 A 
ATOM      9  C   UNL     1       2.891   2.850   4.077  0.00  0.00    +0.000 A 
ATOM     10  C   UNL     1       2.005   1.821   3.697  0.00  0.00    +0.000 A 
ATOM     11  H   UNL     1       0.045  -0.534   4.543  0.00  0.00    +0.000 HD
ENDBRANCH   1   2
BRANCH   1  18
ATOM     12  O   UNL     1       2.690   3.877  -1.048  0.00  0.00    +0.000 OA
ATOM     13  C   UNL     1       1.563   3.561  -0.700  0.00  0.00    +0.000 C 
ATOM     14  N   UNL     1       0.459   3.581  -1.503  0.00  0.00    +0.000 N 
ATOM     15  C   UNL     1      -0.634   3.161  -0.825  0.00  0.00    +0.000 C 
ATOM     16  S   UNL     1      -2.160   3.040  -1.431  0.00  0.00    +0.000 S 
ATOM     17  N   UNL     1      -0.267   2.850   0.459  0.00  0.00    +0.000 N 
ATOM     18  C   UNL     1       1.147   3.079   0.691  0.00  0.00    +0.000 C 
ATOM     19  H   UNL     1       0.458   3.863  -2.447  0.00  0.00    +0.000 HD
ATOM     20  H   UNL     1      -0.890   2.511   1.143  0.00  0.00    +0.000 HD
ENDBRANCH   1  18
TORSDOF 2
