REMARK  Name = claudia.xyz
REMARK  1 active torsions:
REMARK  status: ('A' for Active; 'I' for Inactive)
REMARK    1  A    between atoms: C_7  and  C_8
REMARK                            x       y       z     vdW  Elec       q    Type
REMARK                         _______ _______ _______ _____ _____    ______ ____
ROOT
ATOM      1  O   UNL     1      -1.894  -0.694  -2.295  0.00  0.00    +0.000 OA
ATOM      2  C   UNL     1      -0.879  -0.395  -1.691  0.00  0.00    +0.000 C 
ATOM      3  N   UNL     1       0.033  -1.266  -1.189  0.00  0.00    +0.000 N 
ATOM      4  C   UNL     1       1.116  -0.758  -0.537  0.00  0.00    +0.000 C 
ATOM      5  O   UNL     1       2.006  -1.428  -0.040  0.00  0.00    +0.000 OA
ATOM      6  C   UNL     1       1.044   0.727  -0.525  0.00  0.00    +0.000 C 
ATOM      7  C   UNL     1       1.988   1.478   0.054  0.00  0.00    +0.000 C 
ATOM      8  S   UNL     1      -0.384   1.248  -1.341  0.00  0.00    +0.000 S 
ATOM      9  H   UNL     1      -0.085  -2.238  -1.293  0.00  0.00    +0.000 HD
ENDROOT
BRANCH   7  10
ATOM     10  C   UNL     1       1.980   2.941   0.103  0.00  0.00    +0.000 A 
ATOM     11  C   UNL     1       1.341   3.607   1.154  0.00  0.00    +0.000 A 
ATOM     12  C   UNL     1       1.331   5.002   1.197  0.00  0.00    +0.000 A 
ATOM     13  C   UNL     1       1.958   5.736   0.191  0.00  0.00    +0.000 A 
ATOM     14  C   UNL     1       2.596   5.077  -0.859  0.00  0.00    +0.000 A 
ATOM     15  C   UNL     1       2.608   3.682  -0.904  0.00  0.00    +0.000 A 
ENDBRANCH   7  10
TORSDOF 1
