REMARK  Name = claudia.xyz
REMARK  0 active torsions:
REMARK  status: ('A' for Active; 'I' for Inactive)
REMARK                            x       y       z     vdW  Elec       q    Type
REMARK                         _______ _______ _______ _____ _____    ______ ____
ROOT
ATOM      1  O   UNL     1       2.687  -0.713  -0.036  0.00  0.00    +0.000 OA
ATOM      2  C   UNL     1       1.593  -0.171  -0.020  0.00  0.00    +0.000 C 
ATOM      3  C   UNL     1       1.335   1.330  -0.030  0.00  0.00    +0.000 C 
ATOM      4  N   UNL     1      -0.107   1.349  -0.001  0.00  0.00    +0.000 N 
ATOM      5  C   UNL     1      -0.627   0.078   0.020  0.00  0.00    +0.000 C 
ATOM      6  S   UNL     1      -2.233  -0.287   0.054  0.00  0.00    +0.000 S 
ATOM      7  N   UNL     1       0.390  -0.815   0.009  0.00  0.00    +0.000 N 
ATOM      8  H   UNL     1      -0.650   2.170   0.003  0.00  0.00    +0.000 HD
ATOM      9  H   UNL     1       0.278  -1.793   0.020  0.00  0.00    +0.000 HD
ENDROOT
TORSDOF 0
