REMARK  Name = claudia.xyz
REMARK  1 active torsions:
REMARK  status: ('A' for Active; 'I' for Inactive)
REMARK    1  A    between atoms: C_8  and  C_9
REMARK                            x       y       z     vdW  Elec       q    Type
REMARK                         _______ _______ _______ _____ _____    ______ ____
ROOT
ATOM      1  O   UNL     1      -2.242  -1.574   0.316  0.00  0.00    +0.000 OA
ATOM      2  C   UNL     1      -1.303  -0.818   0.131  0.00  0.00    +0.000 C 
ATOM      3  N   UNL     1       0.000  -1.209   0.007  0.00  0.00    +0.000 N 
ATOM      4  C   UNL     1       0.943  -0.247  -0.189  0.00  0.00    +0.000 C 
ATOM      5  S   UNL     1       2.559  -0.565  -0.353  0.00  0.00    +0.000 S 
ATOM      6  S   UNL     1       0.180   1.326  -0.233  0.00  0.00    +0.000 S 
ATOM      7  C   UNL     1      -1.396   0.661   0.007  0.00  0.00    +0.000 C 
ATOM      8  C   UNL     1      -2.571   1.293   0.108  0.00  0.00    +0.000 C 
ATOM      9  H   UNL     1       0.250  -2.160   0.058  0.00  0.00    +0.000 HD
ENDROOT
BRANCH   8  10
ATOM     10  C   UNL     1      -2.712   2.705   0.001  0.00  0.00    +0.000 A 
ATOM     11  S   UNL     1      -3.154   3.607   1.401  0.00  0.00    +0.000 S 
ATOM     12  C   UNL     1      -3.126   5.087   0.551  0.00  0.00    +0.000 A 
ATOM     13  C   UNL     1      -2.815   4.911  -0.778  0.00  0.00    +0.000 A 
ATOM     14  C   UNL     1      -2.588   3.542  -1.096  0.00  0.00    +0.000 A 
ATOM     15 CL   UNL     1      -2.220   3.048  -2.697  0.00  0.00    +0.000 Cl
ENDBRANCH   8  10
TORSDOF 1
