REMARK  Name = claudia.xyz
REMARK  0 active torsions:
REMARK  status: ('A' for Active; 'I' for Inactive)
REMARK                            x       y       z     vdW  Elec       q    Type
REMARK                         _______ _______ _______ _____ _____    ______ ____
ROOT
ATOM      1  O   UNL     1       1.517  -0.340   1.129  0.00  0.00    +0.000 OA
ATOM      2  C   UNL     1       2.499  -0.201   0.427  0.00  0.00    +0.000 C 
ATOM      3  N   UNL     1       3.021  -1.129  -0.435  0.00  0.00    +0.000 N 
ATOM      4  C   UNL     1       4.121  -0.640  -1.078  0.00  0.00    +0.000 C 
ATOM      5  S   UNL     1       5.009  -1.431  -2.219  0.00  0.00    +0.000 S 
ATOM      6  N   UNL     1       4.360   0.639  -0.621  0.00  0.00    +0.000 N 
ATOM      7  C   UNL     1       3.412   0.998   0.308  0.00  0.00    +0.000 C 
ATOM      8  C   UNL     1       3.305   2.186   0.929  0.00  0.00    +0.000 C 
ATOM      9  C   UNL     1       2.121   2.609   1.767  0.00  0.00    +0.000 C 
ATOM     10  C   UNL     1       1.539   3.862   1.120  0.00  0.00    +0.000 C 
ATOM     11  O   UNL     1       2.454   4.963   1.106  0.00  0.00    +0.000 OA
ATOM     12  C   UNL     1       3.766   4.636   0.869  0.00  0.00    +0.000 A 
ATOM     13  C   UNL     1       4.633   5.728   0.766  0.00  0.00    +0.000 A 
ATOM     14  C   UNL     1       6.001   5.526   0.609  0.00  0.00    +0.000 A 
ATOM     15  C   UNL     1       6.509   4.230   0.583  0.00  0.00    +0.000 A 
ATOM     16  C   UNL     1       5.644   3.136   0.689  0.00  0.00    +0.000 A 
ATOM     17  C   UNL     1       4.256   3.319   0.789  0.00  0.00    +0.000 A 
ATOM     18  H   UNL     1       2.651  -2.031  -0.572  0.00  0.00    +0.000 HD
ATOM     19  H   UNL     1       5.102   1.213  -0.917  0.00  0.00    +0.000 HD
ENDROOT
TORSDOF 0
