REMARK  Name = claudia.xyz
REMARK  3 active torsions:
REMARK  status: ('A' for Active; 'I' for Inactive)
REMARK    1  A    between atoms: C_1  and  O_2
REMARK    2  A    between atoms: O_2  and  C_3
REMARK    3  A    between atoms: C_8  and  C_9
REMARK                            x       y       z     vdW  Elec       q    Type
REMARK                         _______ _______ _______ _____ _____    ______ ____
ROOT
ATOM      1  C   UNL     1       4.147  -1.682   1.228  0.00  0.00    +0.000 C 
ATOM      2  C   UNL     1       3.462  -2.448   2.086  0.00  0.00    +0.000 C 
ATOM      3  S   UNL     1       2.210  -3.585   1.735  0.00  0.00    +0.000 S 
ATOM      4  C   UNL     1       1.987  -3.983   3.422  0.00  0.00    +0.000 C 
ATOM      5  S   UNL     1       0.900  -5.065   4.044  0.00  0.00    +0.000 S 
ATOM      6  N   UNL     1       2.857  -3.266   4.184  0.00  0.00    +0.000 N 
ATOM      7  C   UNL     1       3.711  -2.406   3.551  0.00  0.00    +0.000 C 
ATOM      8  O   UNL     1       4.550  -1.722   4.113  0.00  0.00    +0.000 OA
ATOM      9  H   UNL     1       2.872  -3.363   5.164  0.00  0.00    +0.000 HD
ENDROOT
BRANCH   1  15
ATOM     10  C   UNL     1       2.908  -0.879  -0.804  0.00  0.00    +0.000 A 
ATOM     11  C   UNL     1       2.744  -0.895  -2.193  0.00  0.00    +0.000 A 
ATOM     12  C   UNL     1       3.576  -1.681  -2.996  0.00  0.00    +0.000 A 
ATOM     13  C   UNL     1       4.582  -2.452  -2.420  0.00  0.00    +0.000 A 
ATOM     14  C   UNL     1       4.762  -2.439  -1.038  0.00  0.00    +0.000 A 
ATOM     15  C   UNL     1       3.931  -1.655  -0.225  0.00  0.00    +0.000 A 
BRANCH  10  17
ATOM     16  C   UNL     1       0.957   0.445  -0.459  0.00  0.00    +0.000 C 
ATOM     17  O   UNL     1       2.147  -0.134   0.061  0.00  0.00    +0.000 OA
ENDBRANCH  10  17
ENDBRANCH   1  15
TORSDOF 2
