REMARK  Name = claudia.xyz
REMARK  2 active torsions:
REMARK  status: ('A' for Active; 'I' for Inactive)
REMARK    1  A    between atoms: C_1  and  C_2
REMARK    2  A    between atoms: C_2  and  C_10
REMARK                            x       y       z     vdW  Elec       q    Type
REMARK                         _______ _______ _______ _____ _____    ______ ____
ROOT
ATOM      1  C   UNL     1       0.855  -0.175  -0.132  0.00  0.00    +0.000 C 
ATOM      2  C   UNL     1       2.348   0.005   0.028  0.00  0.00    +0.000 C 
ATOM      3  C   UNL     1       3.064  -0.836   0.799  0.00  0.00    +0.000 C 
ATOM      4  N   UNL     1       4.422  -0.802   1.020  0.00  0.00    +0.000 N 
ATOM      5  C   UNL     1       4.790  -1.837   1.854  0.00  0.00    +0.000 C 
ATOM      6  S   UNL     1       6.323  -2.162   2.364  0.00  0.00    +0.000 S 
ATOM      7  N   UNL     1       3.667  -2.544   2.183  0.00  0.00    +0.000 N 
ATOM      8  C   UNL     1       2.553  -2.015   1.585  0.00  0.00    +0.000 C 
ATOM      9  O   UNL     1       1.411  -2.418   1.679  0.00  0.00    +0.000 OA
ATOM     10  H   UNL     1       5.040  -0.137   0.638  0.00  0.00    +0.000 HD
ATOM     11  H   UNL     1       3.659  -3.332   2.774  0.00  0.00    +0.000 HD
ENDROOT
BRANCH   2  12
ATOM     12  C   UNL     1       3.052   1.070  -0.627  0.00  0.00    +0.000 A 
ATOM     13  C   UNL     1       3.518   2.261  -0.097  0.00  0.00    +0.000 A 
ATOM     14  C   UNL     1       4.177   3.074  -1.064  0.00  0.00    +0.000 A 
ATOM     15  C   UNL     1       4.188   2.486  -2.308  0.00  0.00    +0.000 A 
ATOM     16  S   UNL     1       3.405   0.967  -2.307  0.00  0.00    +0.000 S 
ENDBRANCH   2  12
TORSDOF 1
