REMARK  Name = claudia.xyz
REMARK  1 active torsions:
REMARK  status: ('A' for Active; 'I' for Inactive)
REMARK    1  A    between atoms: C_7  and  C_8
REMARK                            x       y       z     vdW  Elec       q    Type
REMARK                         _______ _______ _______ _____ _____    ______ ____
ROOT
ATOM      1  O   UNL     1      -4.877   0.629  -3.114  0.00  0.00    +0.000 OA
ATOM      2  C   UNL     1      -4.166   0.542  -2.128  0.00  0.00    +0.000 C 
ATOM      3  N   UNL     1      -3.942  -0.591  -1.389  0.00  0.00    +0.000 N 
ATOM      4  C   UNL     1      -3.111  -0.344  -0.333  0.00  0.00    +0.000 C 
ATOM      5  O   UNL     1      -2.731  -1.121   0.520  0.00  0.00    +0.000 OA
ATOM      6  C   UNL     1      -2.774   1.107  -0.454  0.00  0.00    +0.000 C 
ATOM      7  C   UNL     1      -1.990   1.785   0.389  0.00  0.00    +0.000 C 
ATOM      8  N   UNL     1      -3.444   1.570  -1.551  0.00  0.00    +0.000 N 
ATOM      9  H   UNL     1      -4.332  -1.472  -1.594  0.00  0.00    +0.000 HD
ATOM     10  H   UNL     1      -3.416   2.497  -1.881  0.00  0.00    +0.000 HD
ENDROOT
BRANCH   7  11
ATOM     11  C   UNL     1      -1.658   3.169   0.303  0.00  0.00    +0.000 A 
ATOM     12  C   UNL     1      -1.756   4.031   1.372  0.00  0.00    +0.000 A 
ATOM     13  N   UNL     1      -1.381   5.276   0.942  0.00  0.00    +0.000 N 
ATOM     14  C   UNL     1      -1.011   5.232  -0.384  0.00  0.00    +0.000 A 
ATOM     15  C   UNL     1      -0.553   6.254  -1.223  0.00  0.00    +0.000 A 
ATOM     16  C   UNL     1      -0.221   5.916  -2.538  0.00  0.00    +0.000 A 
ATOM     17  C   UNL     1      -0.337   4.605  -2.991  0.00  0.00    +0.000 A 
ATOM     18  C   UNL     1      -0.798   3.594  -2.139  0.00  0.00    +0.000 A 
ATOM     19  C   UNL     1      -1.157   3.909  -0.811  0.00  0.00    +0.000 A 
ATOM     20  H   UNL     1      -1.377   6.087   1.500  0.00  0.00    +0.000 HD
ENDBRANCH   7  11
TORSDOF 1
