REMARK  Name = claudia.xyz
REMARK  3 active torsions:
REMARK  status: ('A' for Active; 'I' for Inactive)
REMARK    1  A    between atoms: C_1  and  O_2
REMARK    2  A    between atoms: O_2  and  C_3
REMARK    3  A    between atoms: C_8  and  C_9
REMARK                            x       y       z     vdW  Elec       q    Type
REMARK                         _______ _______ _______ _____ _____    ______ ____
ROOT
ATOM      1  C   UNL     1       4.379  -1.989   0.639  0.00  0.00    +0.000 C 
ATOM      2  C   UNL     1       3.678  -2.896   1.323  0.00  0.00    +0.000 C 
ATOM      3  N   UNL     1       2.593  -3.615   0.900  0.00  0.00    +0.000 N 
ATOM      4  C   UNL     1       2.164  -4.441   1.919  0.00  0.00    +0.000 C 
ATOM      5  S   UNL     1       0.878  -5.471   1.849  0.00  0.00    +0.000 S 
ATOM      6  N   UNL     1       2.989  -4.258   2.998  0.00  0.00    +0.000 N 
ATOM      7  C   UNL     1       3.956  -3.324   2.730  0.00  0.00    +0.000 C 
ATOM      8  O   UNL     1       4.845  -2.936   3.462  0.00  0.00    +0.000 OA
ATOM      9  H   UNL     1       2.182  -3.552   0.008  0.00  0.00    +0.000 HD
ATOM     10  H   UNL     1       2.899  -4.735   3.855  0.00  0.00    +0.000 HD
ENDROOT
BRANCH   1  16
ATOM     11  C   UNL     1       2.945  -0.862  -1.106  0.00  0.00    +0.000 A 
ATOM     12  C   UNL     1       2.732  -0.539  -2.452  0.00  0.00    +0.000 A 
ATOM     13  C   UNL     1       3.649  -0.936  -3.429  0.00  0.00    +0.000 A 
ATOM     14  C   UNL     1       4.785  -1.657  -3.073  0.00  0.00    +0.000 A 
ATOM     15  C   UNL     1       5.007  -1.987  -1.737  0.00  0.00    +0.000 A 
ATOM     16  C   UNL     1       4.090  -1.601  -0.748  0.00  0.00    +0.000 A 
BRANCH  11  18
ATOM     17  C   UNL     1       1.037   0.381  -0.386  0.00  0.00    +0.000 C 
ATOM     18  O   UNL     1       2.099  -0.515  -0.084  0.00  0.00    +0.000 OA
ENDBRANCH  11  18
ENDBRANCH   1  16
TORSDOF 2
