REMARK  Name = claudia.xyz
REMARK  2 active torsions:
REMARK  status: ('A' for Active; 'I' for Inactive)
REMARK    1  A    between atoms: C_1  and  N_2
REMARK    2  A    between atoms: C_4  and  C_5
REMARK                            x       y       z     vdW  Elec       q    Type
REMARK                         _______ _______ _______ _____ _____    ______ ____
ROOT
ATOM      1  C   UNL     1       2.425   1.483  -0.038  0.00  0.00    +0.000 C 
ATOM      2  N   UNL     1       1.560   0.325  -0.015  0.00  0.00    +0.000 N 
ATOM      3  C   UNL     1       1.998  -0.974   0.008  0.00  0.00    +0.000 A 
ATOM      4  C   UNL     1       0.887  -1.785   0.042  0.00  0.00    +0.000 A 
ATOM      5  C   UNL     1      -0.270  -0.956   0.019  0.00  0.00    +0.000 A 
ATOM      6  C   UNL     1      -1.660  -1.200   0.025  0.00  0.00    +0.000 A 
ATOM      7  C   UNL     1      -2.551  -0.122  -0.001  0.00  0.00    +0.000 A 
ATOM      8  C   UNL     1      -2.079   1.186  -0.032  0.00  0.00    +0.000 A 
ATOM      9  C   UNL     1      -0.707   1.457  -0.040  0.00  0.00    +0.000 A 
ATOM     10  C   UNL     1       0.180   0.369  -0.015  0.00  0.00    +0.000 A 
ENDROOT
BRANCH   4  11
ATOM     11  C   UNL     1       0.934  -3.207   0.072  0.00  0.00    +0.000 C 
ATOM     12  C   UNL     1       0.951  -3.969   1.173  0.00  0.00    +0.000 C 
ATOM     13  S   UNL     1       0.929  -3.458   2.821  0.00  0.00    +0.000 S 
ATOM     14  C   UNL     1       0.982  -5.106   3.412  0.00  0.00    +0.000 C 
ATOM     15  O   UNL     1       0.996  -5.415   4.592  0.00  0.00    +0.000 OA
ATOM     16  N   UNL     1       1.007  -5.969   2.366  0.00  0.00    +0.000 N 
ATOM     17  C   UNL     1       0.996  -5.451   1.105  0.00  0.00    +0.000 C 
ATOM     18  O   UNL     1       1.021  -6.114   0.081  0.00  0.00    +0.000 OA
ATOM     19  H   UNL     1       1.033  -6.942   2.513  0.00  0.00    +0.000 HD
ENDBRANCH   4  11
TORSDOF 1
