REMARK  Name = claudia.xyz
REMARK  1 active torsions:
REMARK  status: ('A' for Active; 'I' for Inactive)
REMARK    1  A    between atoms: C_8  and  C_9
REMARK                            x       y       z     vdW  Elec       q    Type
REMARK                         _______ _______ _______ _____ _____    ______ ____
ROOT
ATOM      1  O   UNL     1      -2.205  -1.528   0.469  0.00  0.00    +0.000 OA
ATOM      2  C   UNL     1      -1.255  -0.806   0.209  0.00  0.00    +0.000 C 
ATOM      3  N   UNL     1       0.024  -1.246   0.024  0.00  0.00    +0.000 N 
ATOM      4  C   UNL     1       0.983  -0.324  -0.260  0.00  0.00    +0.000 C 
ATOM      5  S   UNL     1       2.574  -0.703  -0.509  0.00  0.00    +0.000 S 
ATOM      6  S   UNL     1       0.268   1.269  -0.314  0.00  0.00    +0.000 S 
ATOM      7  C   UNL     1      -1.310   0.673   0.047  0.00  0.00    +0.000 C 
ATOM      8  C   UNL     1      -2.474   1.321   0.190  0.00  0.00    +0.000 C 
ATOM      9  H   UNL     1       0.246  -2.203   0.094  0.00  0.00    +0.000 HD
ENDROOT
BRANCH   8  10
ATOM     10  C   UNL     1      -2.667   2.725   0.062  0.00  0.00    +0.000 A 
ATOM     11  C   UNL     1      -3.851   3.439   0.230  0.00  0.00    +0.000 A 
ATOM     12  C   UNL     1      -3.576   4.809   0.005  0.00  0.00    +0.000 A 
ATOM     13  C   UNL     1      -2.240   4.875  -0.291  0.00  0.00    +0.000 A 
ATOM     14  O   UNL     1      -1.689   3.639  -0.260  0.00  0.00    +0.000 OA
ENDBRANCH   8  10
TORSDOF 1
