REMARK  Name = claudia.xyz
REMARK  2 active torsions:
REMARK  status: ('A' for Active; 'I' for Inactive)
REMARK    1  A    between atoms: C_8  and  C_9
REMARK    2  A    between atoms: C_10  and  C_11
REMARK                            x       y       z     vdW  Elec       q    Type
REMARK                         _______ _______ _______ _____ _____    ______ ____
ROOT
ATOM      1  O   UNL     1      -2.276  -1.573   0.081  0.00  0.00    +0.000 OA
ATOM      2  C   UNL     1      -1.316  -0.825  -0.008  0.00  0.00    +0.000 C 
ATOM      3  N   UNL     1      -0.015  -1.234  -0.084  0.00  0.00    +0.000 N 
ATOM      4  C   UNL     1       0.953  -0.281  -0.179  0.00  0.00    +0.000 C 
ATOM      5  S   UNL     1       2.569  -0.622  -0.279  0.00  0.00    +0.000 S 
ATOM      6  S   UNL     1       0.220   1.306  -0.179  0.00  0.00    +0.000 S 
ATOM      7  C   UNL     1      -1.376   0.662  -0.050  0.00  0.00    +0.000 C 
ATOM      8  C   UNL     1      -2.540   1.323   0.010  0.00  0.00    +0.000 C 
ATOM      9  H   UNL     1       0.217  -2.191  -0.070  0.00  0.00    +0.000 HD
ENDROOT
BRANCH   8  10
ATOM     10  C   UNL     1      -2.716   2.761  -0.023  0.00  0.00    +0.000 C 
ATOM     11  C   UNL     1      -3.922   3.346   0.045  0.00  0.00    +0.000 C 
BRANCH  11  12
ATOM     12  C   UNL     1      -4.056   4.762   0.009  0.00  0.00    +0.000 A 
ATOM     13  C   UNL     1      -5.218   5.523   0.074  0.00  0.00    +0.000 A 
ATOM     14  C   UNL     1      -4.853   6.888   0.000  0.00  0.00    +0.000 A 
ATOM     15  C   UNL     1      -3.486   6.903  -0.106  0.00  0.00    +0.000 A 
ATOM     16  O   UNL     1      -2.998   5.640  -0.102  0.00  0.00    +0.000 OA
ENDBRANCH  11  12
ENDBRANCH   8  10
TORSDOF 2
