REMARK  Name = claudia.xyz
REMARK  4 active torsions:
REMARK  status: ('A' for Active; 'I' for Inactive)
REMARK    1  A    between atoms: C_1  and  C_2
REMARK    2  A    between atoms: C_2  and  C_3
REMARK    3  A    between atoms: C_3  and  C_4
REMARK    4  A    between atoms: C_5  and  C_6
REMARK                            x       y       z     vdW  Elec       q    Type
REMARK                         _______ _______ _______ _____ _____    ______ ____
ROOT
ATOM      1  C   UNL     1       6.709  -2.574  -0.158  0.00  0.00    +0.000 C 
ATOM      2  N   UNL     1       7.157  -3.312   0.996  0.00  0.00    +0.000 N 
ATOM      3  C   UNL     1       7.930  -4.391   0.644  0.00  0.00    +0.000 C 
ATOM      4  S   UNL     1       8.625  -5.441   1.706  0.00  0.00    +0.000 S 
ATOM      5  N   UNL     1       8.025  -4.450  -0.705  0.00  0.00    +0.000 N 
ATOM      6  C   UNL     1       7.323  -3.429  -1.284  0.00  0.00    +0.000 C 
ATOM      7  O   UNL     1       7.212  -3.251  -2.487  0.00  0.00    +0.000 OA
ATOM      8  H   UNL     1       6.936  -3.072   1.925  0.00  0.00    +0.000 HD
ATOM      9  H   UNL     1       8.529  -5.134  -1.201  0.00  0.00    +0.000 HD
ENDROOT
BRANCH   1  11
ATOM     10  C   UNL     1       4.468  -1.451  -0.101  0.00  0.00    +0.000 C 
ATOM     11  C   UNL     1       5.216  -2.565  -0.167  0.00  0.00    +0.000 C 
BRANCH  10  12
ATOM     12  C   UNL     1       2.965  -1.450  -0.121  0.00  0.00    +0.000 C 
BRANCH  12  14
ATOM     13  C   UNL     1       0.907  -0.675  -1.351  0.00  0.00    +0.000 C 
ATOM     14  C   UNL     1       2.428  -0.689  -1.333  0.00  0.00    +0.000 C 
ENDBRANCH  12  14
ENDBRANCH  10  12
ENDBRANCH   1  11
TORSDOF 3
