REMARK  Name = claudia.xyz
REMARK  1 active torsions:
REMARK  status: ('A' for Active; 'I' for Inactive)
REMARK    1  A    between atoms: C_7  and  C_8
REMARK                            x       y       z     vdW  Elec       q    Type
REMARK                         _______ _______ _______ _____ _____    ______ ____
ROOT
ATOM      1  O   UNL     1      -2.293  -0.988   0.819  0.00  0.00    +0.000 OA
ATOM      2  C   UNL     1      -1.182  -0.585   0.522  0.00  0.00    +0.000 C 
ATOM      3  N   UNL     1      -0.153  -1.345   0.072  0.00  0.00    +0.000 N 
ATOM      4  C   UNL     1       1.028  -0.727  -0.207  0.00  0.00    +0.000 C 
ATOM      5  O   UNL     1       2.030  -1.294  -0.612  0.00  0.00    +0.000 OA
ATOM      6  C   UNL     1       0.912   0.734   0.060  0.00  0.00    +0.000 C 
ATOM      7  C   UNL     1       1.943   1.555  -0.180  0.00  0.00    +0.000 C 
ATOM      8  S   UNL     1      -0.679   1.089   0.623  0.00  0.00    +0.000 S 
ATOM      9  H   UNL     1      -0.257  -2.317  -0.050  0.00  0.00    +0.000 HD
ENDROOT
BRANCH   7  10
ATOM     10  C   UNL     1       1.938   2.965   0.021  0.00  0.00    +0.000 A 
ATOM     11  C   UNL     1       1.422   3.742   1.049  0.00  0.00    +0.000 A 
ATOM     12  C   UNL     1       1.645   5.140   0.865  0.00  0.00    +0.000 A 
ATOM     13  C   UNL     1       2.341   5.377  -0.289  0.00  0.00    +0.000 A 
ATOM     14 CL   UNL     1       2.828   6.908  -0.896  0.00  0.00    +0.000 Cl
ATOM     15  S   UNL     1       2.735   3.973  -1.139  0.00  0.00    +0.000 S 
ENDBRANCH   7  10
TORSDOF 1
