REMARK  Name = claudia.xyz
REMARK  5 active torsions:
REMARK  status: ('A' for Active; 'I' for Inactive)
REMARK    1  A    between atoms: C_1  and  O_2
REMARK    2  A    between atoms: O_2  and  C_3
REMARK    3  A    between atoms: C_6  and  C_7
REMARK    4  A    between atoms: C_16  and  O_17
REMARK    5  A    between atoms: O_17  and  C_18
REMARK                            x       y       z     vdW  Elec       q    Type
REMARK                         _______ _______ _______ _____ _____    ______ ____
ROOT
ATOM      1  C   UNL     1       2.894  -1.079  -0.745  0.00  0.00    +0.000 A 
ATOM      2  C   UNL     1       2.654  -1.430  -2.081  0.00  0.00    +0.000 A 
ATOM      3  C   UNL     1       3.480  -2.344  -2.743  0.00  0.00    +0.000 A 
ATOM      4  C   UNL     1       4.566  -2.918  -2.082  0.00  0.00    +0.000 A 
ATOM      5  C   UNL     1       4.805  -2.583  -0.749  0.00  0.00    +0.000 A 
ATOM      6  C   UNL     1       3.967  -1.687  -0.070  0.00  0.00    +0.000 A 
ENDROOT
BRANCH   4   7
ATOM      7  C   UNL     1       5.450  -3.862  -2.767  0.00  0.00    +0.000 C 
ATOM      8  C   UNL     1       6.410  -3.526  -3.638  0.00  0.00    +0.000 C 
ATOM      9  S   UNL     1       6.858  -1.948  -4.176  0.00  0.00    +0.000 S 
ATOM     10  C   UNL     1       8.139  -2.568  -5.191  0.00  0.00    +0.000 C 
ATOM     11  S   UNL     1       9.162  -1.679  -6.141  0.00  0.00    +0.000 S 
ATOM     12  N   UNL     1       8.184  -3.925  -5.099  0.00  0.00    +0.000 N 
ATOM     13  C   UNL     1       7.282  -4.545  -4.281  0.00  0.00    +0.000 C 
ATOM     14  O   UNL     1       7.209  -5.751  -4.113  0.00  0.00    +0.000 OA
ATOM     15  H   UNL     1       8.847  -4.446  -5.607  0.00  0.00    +0.000 HD
ENDBRANCH   4   7
BRANCH   1  17
ATOM     16  C   UNL     1       1.160   0.569  -0.776  0.00  0.00    +0.000 C 
ATOM     17  O   UNL     1       2.150  -0.156  -0.059  0.00  0.00    +0.000 OA
ENDBRANCH   1  17
BRANCH   6  18
ATOM     18  O   UNL     1       4.355  -1.458   1.227  0.00  0.00    +0.000 OA
ATOM     19  C   UNL     1       3.306  -1.249   2.165  0.00  0.00    +0.000 C 
ENDBRANCH   6  18
TORSDOF 3
