REMARK  Name = claudia.xyz
REMARK  2 active torsions:
REMARK  status: ('A' for Active; 'I' for Inactive)
REMARK    1  A    between atoms: C_1  and  C_2
REMARK    2  A    between atoms: C_2  and  C_10
REMARK                            x       y       z     vdW  Elec       q    Type
REMARK                         _______ _______ _______ _____ _____    ______ ____
ROOT
ATOM      1  C   UNL     1       1.047   0.095   0.018  0.00  0.00    +0.000 C 
ATOM      2  C   UNL     1       2.547   0.059  -0.112  0.00  0.00    +0.000 C 
ATOM      3  C   UNL     1       3.273   1.013  -0.728  0.00  0.00    +0.000 C 
ATOM      4  S   UNL     1       5.002   1.031  -0.917  0.00  0.00    +0.000 S 
ATOM      5  C   UNL     1       4.991   2.547  -1.780  0.00  0.00    +0.000 C 
ATOM      6  S   UNL     1       6.307   3.355  -2.375  0.00  0.00    +0.000 S 
ATOM      7  N   UNL     1       3.713   2.993  -1.905  0.00  0.00    +0.000 N 
ATOM      8  C   UNL     1       2.706   2.235  -1.375  0.00  0.00    +0.000 C 
ATOM      9  O   UNL     1       1.527   2.539  -1.444  0.00  0.00    +0.000 OA
ATOM     10  H   UNL     1       3.518   3.841  -2.365  0.00  0.00    +0.000 HD
ENDROOT
BRANCH   2  11
ATOM     11  C   UNL     1       3.176  -1.130   0.493  0.00  0.00    +0.000 A 
ATOM     12  C   UNL     1       3.673  -1.079   1.802  0.00  0.00    +0.000 A 
ATOM     13  C   UNL     1       4.267  -2.207   2.371  0.00  0.00    +0.000 A 
ATOM     14  C   UNL     1       4.368  -3.388   1.637  0.00  0.00    +0.000 A 
ATOM     15  C   UNL     1       3.874  -3.445   0.334  0.00  0.00    +0.000 A 
ATOM     16  C   UNL     1       3.279  -2.320  -0.238  0.00  0.00    +0.000 A 
ENDBRANCH   2  11
TORSDOF 1
