REMARK  Name = claudia.xyz
REMARK  3 active torsions:
REMARK  status: ('A' for Active; 'I' for Inactive)
REMARK    1  A    between atoms: C_1  and  C_2
REMARK    2  A    between atoms: C_2  and  C_10
REMARK    3  A    between atoms: C_13  and  C_14
REMARK                            x       y       z     vdW  Elec       q    Type
REMARK                         _______ _______ _______ _____ _____    ______ ____
ROOT
ATOM      1  C   UNL     1       3.425  -0.946   0.584  0.00  0.00    +0.000 A 
ATOM      2  C   UNL     1       2.948  -2.259   0.527  0.00  0.00    +0.000 A 
ATOM      3  C   UNL     1       3.660  -3.295   1.139  0.00  0.00    +0.000 A 
ATOM      4  C   UNL     1       4.858  -3.037   1.820  0.00  0.00    +0.000 A 
ATOM      5  C   UNL     1       5.328  -1.716   1.874  0.00  0.00    +0.000 A 
ATOM      6  C   UNL     1       4.618  -0.679   1.262  0.00  0.00    +0.000 A 
ENDROOT
BRANCH   1   8
ATOM      7  C   UNL     1       3.147   0.528  -1.414  0.00  0.00    +0.000 C 
ATOM      8  C   UNL     1       2.664   0.153  -0.041  0.00  0.00    +0.000 C 
ATOM      9  C   UNL     1       1.642   0.722   0.619  0.00  0.00    +0.000 C 
ATOM     10  N   UNL     1       1.208   0.373   1.876  0.00  0.00    +0.000 N 
ATOM     11  C   UNL     1       0.144   1.168   2.247  0.00  0.00    +0.000 C 
ATOM     12  S   UNL     1      -0.670   1.081   3.678  0.00  0.00    +0.000 S 
ATOM     13  N   UNL     1      -0.118   2.038   1.226  0.00  0.00    +0.000 N 
ATOM     14  C   UNL     1       0.749   1.854   0.180  0.00  0.00    +0.000 C 
ATOM     15  O   UNL     1       0.779   2.484  -0.858  0.00  0.00    +0.000 OA
ATOM     16  H   UNL     1       1.600  -0.340   2.431  0.00  0.00    +0.000 HD
ATOM     17  H   UNL     1      -0.837   2.710   1.239  0.00  0.00    +0.000 HD
ENDBRANCH   1   8
BRANCH   4  18
ATOM     18  C   UNL     1       5.653  -4.147   2.487  0.00  0.00    +0.000 C 
ATOM     19  C   UNL     1       6.167  -5.174   1.463  0.00  0.00    +0.000 C 
ATOM     20  C   UNL     1       6.974  -6.281   2.139  0.00  0.00    +0.000 C 
ATOM     21  C   UNL     1       6.180  -6.957   3.253  0.00  0.00    +0.000 C 
ATOM     22  C   UNL     1       5.665  -5.945   4.272  0.00  0.00    +0.000 C 
ATOM     23  C   UNL     1       4.852  -4.837   3.604  0.00  0.00    +0.000 C 
ENDBRANCH   4  18
TORSDOF 2
