REMARK  Name = claudia.xyz
REMARK  2 active torsions:
REMARK  status: ('A' for Active; 'I' for Inactive)
REMARK    1  A    between atoms: C_7  and  C_8
REMARK    2  A    between atoms: C_12  and  O_13
REMARK                            x       y       z     vdW  Elec       q    Type
REMARK                         _______ _______ _______ _____ _____    ______ ____
ROOT
ATOM      1  O   UNL     1       1.715  -0.085   2.563  0.00  0.00    +0.000 OA
ATOM      2  C   UNL     1       0.743  -0.016   1.832  0.00  0.00    +0.000 C 
ATOM      3  N   UNL     1       0.052  -1.075   1.302  0.00  0.00    +0.000 N 
ATOM      4  C   UNL     1      -0.980  -0.654   0.511  0.00  0.00    +0.000 C 
ATOM      5  O   UNL     1      -1.774  -1.332  -0.111  0.00  0.00    +0.000 OA
ATOM      6  C   UNL     1      -0.913   0.837   0.574  0.00  0.00    +0.000 C 
ATOM      7  C   UNL     1      -1.735   1.676  -0.062  0.00  0.00    +0.000 C 
ATOM      8  N   UNL     1       0.141   1.146   1.383  0.00  0.00    +0.000 N 
ATOM      9  H   UNL     1       0.272  -2.020   1.469  0.00  0.00    +0.000 HD
ATOM     10  H   UNL     1       0.430   2.058   1.613  0.00  0.00    +0.000 HD
ENDROOT
BRANCH   7  11
ATOM     11  C   UNL     1      -1.623   3.131   0.022  0.00  0.00    +0.000 A 
ATOM     12  C   UNL     1      -1.040   3.846  -1.031  0.00  0.00    +0.000 A 
ATOM     13  C   UNL     1      -0.912   5.235  -0.952  0.00  0.00    +0.000 A 
ATOM     14  C   UNL     1      -1.367   5.917   0.176  0.00  0.00    +0.000 A 
ATOM     15  C   UNL     1      -1.947   5.201   1.219  0.00  0.00    +0.000 A 
ATOM     16  C   UNL     1      -2.078   3.817   1.152  0.00  0.00    +0.000 A 
BRANCH  15  17
ATOM     17  O   UNL     1      -2.406   5.827   2.340  0.00  0.00    +0.000 OA
ATOM     18  H   UNL     1      -2.335   6.758   2.420  0.00  0.00    +0.000 HD
ENDBRANCH  15  17
ENDBRANCH   7  11
TORSDOF 2
