REMARK  Name = claudia.xyz
REMARK  1 active torsions:
REMARK  status: ('A' for Active; 'I' for Inactive)
REMARK    1  A    between atoms: C_7  and  C_8
REMARK                            x       y       z     vdW  Elec       q    Type
REMARK                         _______ _______ _______ _____ _____    ______ ____
ROOT
ATOM      1  O   UNL     1      -2.420  -0.846   0.286  0.00  0.00    +0.000 OA
ATOM      2  C   UNL     1      -1.258  -0.489   0.194  0.00  0.00    +0.000 C 
ATOM      3  N   UNL     1      -0.189  -1.304   0.009  0.00  0.00    +0.000 N 
ATOM      4  C   UNL     1       1.044  -0.734  -0.089  0.00  0.00    +0.000 C 
ATOM      5  O   UNL     1       2.083  -1.347  -0.270  0.00  0.00    +0.000 OA
ATOM      6  C   UNL     1       0.930   0.741   0.052  0.00  0.00    +0.000 C 
ATOM      7  C   UNL     1       2.008   1.532  -0.023  0.00  0.00    +0.000 C 
ATOM      8  S   UNL     1      -0.725   1.177   0.274  0.00  0.00    +0.000 S 
ATOM      9  H   UNL     1      -0.302  -2.280  -0.051  0.00  0.00    +0.000 HD
ENDROOT
BRANCH   7  10
ATOM     10  C   UNL     1       1.949   2.948   0.102  0.00  0.00    +0.000 A 
ATOM     11  S   UNL     1       2.270   3.921  -1.284  0.00  0.00    +0.000 S 
ATOM     12  C   UNL     1       2.029   5.372  -0.416  0.00  0.00    +0.000 A 
ATOM     13  C   UNL     1       1.736   5.137   0.908  0.00  0.00    +0.000 A 
ATOM     14  C   UNL     1       1.701   3.745   1.208  0.00  0.00    +0.000 A 
ATOM     15 CL   UNL     1       1.394   3.182   2.800  0.00  0.00    +0.000 Cl
ENDBRANCH   7  10
TORSDOF 1
