REMARK  Name = claudia.xyz
REMARK  4 active torsions:
REMARK  status: ('A' for Active; 'I' for Inactive)
REMARK    1  A    between atoms: C_1  and  C_2
REMARK    2  A    between atoms: C_10  and  C_11
REMARK    3  A    between atoms: C_11  and  C_12
REMARK    4  A    between atoms: C_12  and  C_13
REMARK                            x       y       z     vdW  Elec       q    Type
REMARK                         _______ _______ _______ _____ _____    ______ ____
ROOT
ATOM      1  C   UNL     1       2.720  -0.442   1.132  0.00  0.00    +0.000 C 
ATOM      2  C   UNL     1       2.382  -0.077  -0.286  0.00  0.00    +0.000 C 
ATOM      3  O   UNL     1       1.286   0.427  -0.547  0.00  0.00    +0.000 OA
ATOM      4  N   UNL     1       3.317  -0.354  -1.296  0.00  0.00    +0.000 N 
ATOM      5  C   UNL     1       4.449  -1.210  -1.365  0.00  0.00    +0.000 C 
ATOM      6  S   UNL     1       5.210  -2.113  -0.203  0.00  0.00    +0.000 S 
ATOM      7  N   UNL     1       4.875  -1.250  -2.658  0.00  0.00    +0.000 N 
ATOM      8  C   UNL     1       4.066  -0.532  -3.475  0.00  0.00    +0.000 C 
ATOM      9  O   UNL     1       4.184  -0.466  -4.689  0.00  0.00    +0.000 OA
ATOM     10  C   UNL     1       3.022   0.180  -2.631  0.00  0.00    +0.000 C 
ATOM     11  H   UNL     1       5.673  -1.740  -2.962  0.00  0.00    +0.000 HD
ENDROOT
BRANCH  10  12
ATOM     12  C   UNL     1       3.217   1.699  -2.707  0.00  0.00    +0.000 C 
BRANCH  12  13
ATOM     13  C   UNL     1       2.620   2.295  -3.982  0.00  0.00    +0.000 C 
BRANCH  13  14
ATOM     14  C   UNL     1       2.836   3.791  -4.054  0.00  0.00    +0.000 C 
ATOM     15  N   UNL     1       2.291   4.382  -5.155  0.00  0.00    +0.000 N 
ATOM     16  O   UNL     1       3.447   4.446  -3.220  0.00  0.00    +0.000 OA
ATOM     17  H   UNL     1       1.803   3.839  -5.815  0.00  0.00    +0.000 HD
ATOM     18  H   UNL     1       2.386   5.353  -5.290  0.00  0.00    +0.000 HD
ENDBRANCH  13  14
ENDBRANCH  12  13
ENDBRANCH  10  12
TORSDOF 3
