REMARK  Name = claudia.xyz
REMARK  4 active torsions:
REMARK  status: ('A' for Active; 'I' for Inactive)
REMARK    1  A    between atoms: C_1  and  O_2
REMARK    2  A    between atoms: O_2  and  C_3
REMARK    3  A    between atoms: C_6  and  C_7
REMARK    4  A    between atoms: C_8  and  C_9
REMARK                            x       y       z     vdW  Elec       q    Type
REMARK                         _______ _______ _______ _____ _____    ______ ____
ROOT
ATOM      1  C   UNL     1       5.335  -4.212  -2.265  0.00  0.00    +0.000 C 
ATOM      2  C   UNL     1       5.523  -4.423  -3.578  0.00  0.00    +0.000 C 
ENDROOT
BRANCH   2   3
ATOM      3  C   UNL     1       6.262  -5.564  -4.084  0.00  0.00    +0.000 C 
ATOM      4  C   UNL     1       6.490  -5.858  -5.371  0.00  0.00    +0.000 C 
ATOM      5  S   UNL     1       5.982  -4.996  -6.775  0.00  0.00    +0.000 S 
ATOM      6  C   UNL     1       6.741  -6.146  -7.856  0.00  0.00    +0.000 C 
ATOM      7  O   UNL     1       6.717  -6.066  -9.072  0.00  0.00    +0.000 OA
ATOM      8  N   UNL     1       7.346  -7.123  -7.134  0.00  0.00    +0.000 N 
ATOM      9  C   UNL     1       7.267  -7.061  -5.776  0.00  0.00    +0.000 C 
ATOM     10  O   UNL     1       7.760  -7.876  -5.013  0.00  0.00    +0.000 OA
ATOM     11  H   UNL     1       7.829  -7.856  -7.580  0.00  0.00    +0.000 HD
ENDBRANCH   2   3
BRANCH   1  15
ATOM     12  C   UNL     1       3.196  -0.910  -0.552  0.00  0.00    +0.000 A 
ATOM     13  C   UNL     1       2.753  -1.474  -1.747  0.00  0.00    +0.000 A 
ATOM     14  C   UNL     1       3.447  -2.549  -2.320  0.00  0.00    +0.000 A 
ATOM     15  C   UNL     1       4.599  -3.066  -1.713  0.00  0.00    +0.000 A 
ATOM     16  C   UNL     1       5.027  -2.505  -0.505  0.00  0.00    +0.000 A 
ATOM     17  C   UNL     1       4.334  -1.433   0.065  0.00  0.00    +0.000 A 
BRANCH  12  19
ATOM     18  C   UNL     1       1.458   0.710  -0.485  0.00  0.00    +0.000 C 
ATOM     19  O   UNL     1       2.615   0.135   0.111  0.00  0.00    +0.000 OA
ENDBRANCH  12  19
ENDBRANCH   1  15
TORSDOF 3
