REMARK  Name = claudia.xyz
REMARK  1 active torsions:
REMARK  status: ('A' for Active; 'I' for Inactive)
REMARK    1  A    between atoms: C_8  and  C_9
REMARK                            x       y       z     vdW  Elec       q    Type
REMARK                         _______ _______ _______ _____ _____    ______ ____
ROOT
ATOM      1  O   UNL     1      -2.142  -1.649   0.074  0.00  0.00    +0.000 OA
ATOM      2  C   UNL     1      -1.363  -0.853   0.571  0.00  0.00    +0.000 C 
ATOM      3  N   UNL     1      -0.204  -1.192   1.211  0.00  0.00    +0.000 N 
ATOM      4  C   UNL     1       0.566  -0.190   1.717  0.00  0.00    +0.000 C 
ATOM      5  S   UNL     1       1.993  -0.445   2.515  0.00  0.00    +0.000 S 
ATOM      6  S   UNL     1      -0.184   1.355   1.390  0.00  0.00    +0.000 S 
ATOM      7  C   UNL     1      -1.522   0.626   0.578  0.00  0.00    +0.000 C 
ATOM      8  C   UNL     1      -2.576   1.228   0.016  0.00  0.00    +0.000 C 
ATOM      9  H   UNL     1       0.066  -2.134   1.303  0.00  0.00    +0.000 HD
ENDROOT
BRANCH   8  10
ATOM     10  C   UNL     1      -2.797   2.675  -0.016  0.00  0.00    +0.000 A 
ATOM     11  C   UNL     1      -2.289   3.441  -1.070  0.00  0.00    +0.000 A 
ATOM     12  C   UNL     1      -2.497   4.822  -1.096  0.00  0.00    +0.000 A 
ATOM     13  C   UNL     1      -3.212   5.440  -0.072  0.00  0.00    +0.000 A 
ATOM     14  C   UNL     1      -3.720   4.680   0.981  0.00  0.00    +0.000 A 
ATOM     15  C   UNL     1      -3.513   3.300   1.011  0.00  0.00    +0.000 A 
ENDBRANCH   8  10
TORSDOF 1
