REMARK  Name = claudia.xyz
REMARK  2 active torsions:
REMARK  status: ('A' for Active; 'I' for Inactive)
REMARK    1  A    between atoms: C_7  and  C_8
REMARK    2  A    between atoms: C_11  and  O_12
REMARK                            x       y       z     vdW  Elec       q    Type
REMARK                         _______ _______ _______ _____ _____    ______ ____
ROOT
ATOM      1  O   UNL     1       1.899  -0.095   2.265  0.00  0.00    +0.000 OA
ATOM      2  C   UNL     1       0.855  -0.020   1.643  0.00  0.00    +0.000 C 
ATOM      3  N   UNL     1       0.084  -1.074   1.223  0.00  0.00    +0.000 N 
ATOM      4  C   UNL     1      -1.024  -0.646   0.548  0.00  0.00    +0.000 C 
ATOM      5  O   UNL     1      -1.906  -1.317   0.050  0.00  0.00    +0.000 OA
ATOM      6  C   UNL     1      -0.915   0.844   0.560  0.00  0.00    +0.000 C 
ATOM      7  C   UNL     1      -1.794   1.687   0.013  0.00  0.00    +0.000 C 
ATOM      8  N   UNL     1       0.234   1.146   1.231  0.00  0.00    +0.000 N 
ATOM      9  H   UNL     1       0.302  -2.019   1.387  0.00  0.00    +0.000 HD
ATOM     10  H   UNL     1       0.571   2.056   1.397  0.00  0.00    +0.000 HD
ENDROOT
BRANCH   7  11
ATOM     11  C   UNL     1      -1.651   3.142   0.064  0.00  0.00    +0.000 A 
ATOM     12  C   UNL     1      -0.951   3.820  -0.941  0.00  0.00    +0.000 A 
ATOM     13  C   UNL     1      -0.803   5.208  -0.881  0.00  0.00    +0.000 A 
ATOM     14  C   UNL     1      -1.355   5.909   0.187  0.00  0.00    +0.000 A 
ATOM     15  C   UNL     1      -2.049   5.247   1.193  0.00  0.00    +0.000 A 
ATOM     16  C   UNL     1      -2.198   3.860   1.133  0.00  0.00    +0.000 A 
BRANCH  14  17
ATOM     17  O   UNL     1      -1.236   7.263   0.286  0.00  0.00    +0.000 OA
ATOM     18  H   UNL     1      -0.775   7.742  -0.374  0.00  0.00    +0.000 HD
ENDBRANCH  14  17
ENDBRANCH   7  11
TORSDOF 2
