REMARK  Name = claudia.xyz
REMARK  5 active torsions:
REMARK  status: ('A' for Active; 'I' for Inactive)
REMARK    1  A    between atoms: C_1  and  O_2
REMARK    2  A    between atoms: O_2  and  C_3
REMARK    3  A    between atoms: C_6  and  C_7
REMARK    4  A    between atoms: C_16  and  O_17
REMARK    5  A    between atoms: O_17  and  C_18
REMARK                            x       y       z     vdW  Elec       q    Type
REMARK                         _______ _______ _______ _____ _____    ______ ____
ROOT
ATOM      1  C   UNL     1       3.016  -0.922  -0.737  0.00  0.00    +0.000 A 
ATOM      2  C   UNL     1       2.660  -1.328  -2.030  0.00  0.00    +0.000 A 
ATOM      3  C   UNL     1       3.427  -2.271  -2.723  0.00  0.00    +0.000 A 
ATOM      4  C   UNL     1       4.570  -2.815  -2.139  0.00  0.00    +0.000 A 
ATOM      5  C   UNL     1       4.933  -2.417  -0.851  0.00  0.00    +0.000 A 
ATOM      6  C   UNL     1       4.154  -1.493  -0.140  0.00  0.00    +0.000 A 
ENDROOT
BRANCH   4   7
ATOM      7  C   UNL     1       5.385  -3.775  -2.881  0.00  0.00    +0.000 C 
ATOM      8  C   UNL     1       6.501  -3.444  -3.534  0.00  0.00    +0.000 C 
ATOM      9  N   UNL     1       7.080  -2.208  -3.637  0.00  0.00    +0.000 N 
ATOM     10  C   UNL     1       8.219  -2.300  -4.414  0.00  0.00    +0.000 C 
ATOM     11  S   UNL     1       9.222  -1.052  -4.805  0.00  0.00    +0.000 S 
ATOM     12  N   UNL     1       8.368  -3.605  -4.806  0.00  0.00    +0.000 N 
ATOM     13  C   UNL     1       7.358  -4.390  -4.316  0.00  0.00    +0.000 C 
ATOM     14  O   UNL     1       7.185  -5.581  -4.479  0.00  0.00    +0.000 OA
ATOM     15  H   UNL     1       6.739  -1.383  -3.223  0.00  0.00    +0.000 HD
ATOM     16  H   UNL     1       9.106  -3.936  -5.368  0.00  0.00    +0.000 HD
ENDBRANCH   4   7
BRANCH   1  18
ATOM     17  C   UNL     1       1.163   0.586  -0.604  0.00  0.00    +0.000 C 
ATOM     18  O   UNL     1       2.337   0.032  -0.027  0.00  0.00    +0.000 OA
ENDBRANCH   1  18
BRANCH   6  19
ATOM     19  O   UNL     1       4.656  -1.201   1.104  0.00  0.00    +0.000 OA
ATOM     20  C   UNL     1       3.691  -0.986   2.128  0.00  0.00    +0.000 C 
ENDBRANCH   6  19
TORSDOF 3
