REMARK  Name = claudia.xyz
REMARK  4 active torsions:
REMARK  status: ('A' for Active; 'I' for Inactive)
REMARK    1  A    between atoms: C_1  and  N_2
REMARK    2  A    between atoms: N_2  and  C_3
REMARK    3  A    between atoms: N_2  and  C_4
REMARK    4  A    between atoms: C_7  and  C_8
REMARK                            x       y       z     vdW  Elec       q    Type
REMARK                         _______ _______ _______ _____ _____    ______ ____
ROOT
ATOM      1  C   UNL     1       3.010  -0.821  -1.022  0.00  0.00    +0.000 A 
ATOM      2  C   UNL     1       2.687  -0.671  -2.383  0.00  0.00    +0.000 A 
ATOM      3  C   UNL     1       3.433  -1.278  -3.405  0.00  0.00    +0.000 A 
ATOM      4  C   UNL     1       4.532  -2.073  -3.093  0.00  0.00    +0.000 A 
ATOM      5  C   UNL     1       4.871  -2.256  -1.756  0.00  0.00    +0.000 A 
ATOM      6  C   UNL     1       4.117  -1.643  -0.745  0.00  0.00    +0.000 A 
ENDROOT
BRANCH   4   7
ATOM      7  C   UNL     1       5.316  -2.708  -4.152  0.00  0.00    +0.000 C 
ATOM      8  C   UNL     1       6.365  -2.151  -4.768  0.00  0.00    +0.000 C 
ATOM      9  S   UNL     1       7.058  -0.593  -4.496  0.00  0.00    +0.000 S 
ATOM     10  C   UNL     1       8.284  -0.834  -5.720  0.00  0.00    +0.000 C 
ATOM     11  S   UNL     1       9.466   0.240  -6.156  0.00  0.00    +0.000 S 
ATOM     12  N   UNL     1       8.134  -2.062  -6.286  0.00  0.00    +0.000 N 
ATOM     13  C   UNL     1       7.117  -2.858  -5.838  0.00  0.00    +0.000 C 
ATOM     14  O   UNL     1       6.874  -3.977  -6.259  0.00  0.00    +0.000 OA
ATOM     15  H   UNL     1       8.740  -2.368  -6.999  0.00  0.00    +0.000 HD
ENDBRANCH   4   7
BRANCH   1  17
ATOM     16  C   UNL     1       1.297   0.825  -0.354  0.00  0.00    +0.000 C 
ATOM     17  N   UNL     1       2.250  -0.227  -0.007  0.00  0.00    +0.000 N 
ATOM     18  C   UNL     1       2.808  -0.153   1.343  0.00  0.00    +0.000 C 
ENDBRANCH   1  17
TORSDOF 2
