REMARK  Name = claudia.xyz
REMARK  3 active torsions:
REMARK  status: ('A' for Active; 'I' for Inactive)
REMARK    1  A    between atoms: C_1  and  C_2
REMARK    2  A    between atoms: C_10  and  C_11
REMARK    3  A    between atoms: C_11  and  C_12
REMARK                            x       y       z     vdW  Elec       q    Type
REMARK                         _______ _______ _______ _____ _____    ______ ____
ROOT
ATOM      1  C   UNL     1       1.005  -0.690  -0.954  0.00  0.00    +0.000 C 
ATOM      2  C   UNL     1       2.288  -0.205  -0.324  0.00  0.00    +0.000 C 
ATOM      3  O   UNL     1       2.292   0.867   0.278  0.00  0.00    +0.000 OA
ATOM      4  N   UNL     1       3.424  -0.981  -0.541  0.00  0.00    +0.000 N 
ATOM      5  C   UNL     1       4.566  -1.026   0.287  0.00  0.00    +0.000 C 
ATOM      6  S   UNL     1       4.945  -0.180   1.661  0.00  0.00    +0.000 S 
ATOM      7  N   UNL     1       5.404  -1.987  -0.187  0.00  0.00    +0.000 N 
ATOM      8  C   UNL     1       4.872  -2.631  -1.254  0.00  0.00    +0.000 C 
ATOM      9  O   UNL     1       5.398  -3.576  -1.819  0.00  0.00    +0.000 OA
ATOM     10  C   UNL     1       3.550  -1.967  -1.626  0.00  0.00    +0.000 C 
ATOM     11  H   UNL     1       6.287  -2.190   0.197  0.00  0.00    +0.000 HD
ENDROOT
BRANCH  10  12
ATOM     12  C   UNL     1       3.666  -1.308  -3.009  0.00  0.00    +0.000 C 
BRANCH  12  13
ATOM     13  C   UNL     1       3.192  -2.214  -4.123  0.00  0.00    +0.000 A 
ATOM     14  C   UNL     1       1.863  -2.165  -4.565  0.00  0.00    +0.000 A 
ATOM     15  C   UNL     1       1.420  -3.016  -5.579  0.00  0.00    +0.000 A 
ATOM     16  C   UNL     1       2.301  -3.925  -6.162  0.00  0.00    +0.000 A 
ATOM     17  C   UNL     1       3.624  -3.981  -5.732  0.00  0.00    +0.000 A 
ATOM     18  C   UNL     1       4.068  -3.130  -4.719  0.00  0.00    +0.000 A 
ENDBRANCH  12  13
ENDBRANCH  10  12
TORSDOF 2
