REMARK  Name = claudia.xyz
REMARK  2 active torsions:
REMARK  status: ('A' for Active; 'I' for Inactive)
REMARK    1  A    between atoms: C_1  and  C_2
REMARK    2  A    between atoms: C_5  and  C_6
REMARK                            x       y       z     vdW  Elec       q    Type
REMARK                         _______ _______ _______ _____ _____    ______ ____
ROOT
ATOM      1  C   UNL     1      -3.291   0.054  -0.068  0.00  0.00    +0.000 C 
ATOM      2  C   UNL     1      -3.994   0.057  -1.202  0.00  0.00    +0.000 C 
ATOM      3  N   UNL     1      -3.517   0.042  -2.485  0.00  0.00    +0.000 N 
ATOM      4  C   UNL     1      -4.579   0.052  -3.369  0.00  0.00    +0.000 C 
ATOM      5  S   UNL     1      -4.464   0.042  -5.013  0.00  0.00    +0.000 S 
ATOM      6  N   UNL     1      -5.742   0.073  -2.644  0.00  0.00    +0.000 N 
ATOM      7  C   UNL     1      -5.488   0.077  -1.297  0.00  0.00    +0.000 C 
ATOM      8  O   UNL     1      -6.287   0.094  -0.383  0.00  0.00    +0.000 OA
ATOM      9  H   UNL     1      -2.566   0.027  -2.738  0.00  0.00    +0.000 HD
ATOM     10  H   UNL     1      -6.644   0.083  -3.039  0.00  0.00    +0.000 HD
ENDROOT
BRANCH   1  15
ATOM     11  C   UNL     1       2.480  -0.027  -0.005  0.00  0.00    +0.000 C 
ATOM     12  C   UNL     1       0.980   0.004  -0.016  0.00  0.00    +0.000 A 
ATOM     13  C   UNL     1       0.285   1.219  -0.016  0.00  0.00    +0.000 A 
ATOM     14  C   UNL     1      -1.112   1.235  -0.025  0.00  0.00    +0.000 A 
ATOM     15  C   UNL     1      -1.830   0.036  -0.033  0.00  0.00    +0.000 A 
ATOM     16  C   UNL     1      -1.140  -1.180  -0.036  0.00  0.00    +0.000 A 
ATOM     17  C   UNL     1       0.256  -1.195  -0.027  0.00  0.00    +0.000 A 
ENDBRANCH   1  15
TORSDOF 1
