REMARK  Name = claudia.xyz
REMARK  1 active torsions:
REMARK  status: ('A' for Active; 'I' for Inactive)
REMARK    1  A    between atoms: C_7  and  C_8
REMARK                            x       y       z     vdW  Elec       q    Type
REMARK                         _______ _______ _______ _____ _____    ______ ____
ROOT
ATOM      1  O   UNL     1      -2.434  -0.810  -0.378  0.00  0.00    +0.000 OA
ATOM      2  C   UNL     1      -1.273  -0.465  -0.234  0.00  0.00    +0.000 C 
ATOM      3  N   UNL     1      -0.205  -1.295  -0.127  0.00  0.00    +0.000 N 
ATOM      4  C   UNL     1       1.027  -0.737   0.035  0.00  0.00    +0.000 C 
ATOM      5  O   UNL     1       2.066  -1.367   0.150  0.00  0.00    +0.000 OA
ATOM      6  C   UNL     1       0.912   0.744   0.051  0.00  0.00    +0.000 C 
ATOM      7  C   UNL     1       1.989   1.523   0.213  0.00  0.00    +0.000 C 
ATOM      8  S   UNL     1      -0.741   1.200  -0.135  0.00  0.00    +0.000 S 
ATOM      9  H   UNL     1      -0.318  -2.272  -0.165  0.00  0.00    +0.000 HD
ENDROOT
BRANCH   7  10
ATOM     10  C   UNL     1       1.928   2.943   0.240  0.00  0.00    +0.000 A 
ATOM     11  S   UNL     1       2.180   3.764   1.735  0.00  0.00    +0.000 S 
ATOM     12  C   UNL     1       1.970   5.301   1.015  0.00  0.00    +0.000 A 
ATOM     13  C   UNL     1       1.738   5.211  -0.339  0.00  0.00    +0.000 A 
ATOM     14  C   UNL     1       1.725   3.861  -0.773  0.00  0.00    +0.000 A 
ATOM     15 BR   UNL     1       1.467   3.446  -2.603  0.00  0.00    +0.000 Br
ENDBRANCH   7  10
TORSDOF 1
