REMARK  Name = claudia.xyz
REMARK  1 active torsions:
REMARK  status: ('A' for Active; 'I' for Inactive)
REMARK    1  A    between atoms: C_8  and  C_9
REMARK                            x       y       z     vdW  Elec       q    Type
REMARK                         _______ _______ _______ _____ _____    ______ ____
ROOT
ATOM      1  O   UNL     1      -2.275  -1.369   0.131  0.00  0.00    +0.000 OA
ATOM      2  C   UNL     1      -1.290  -0.660   0.077  0.00  0.00    +0.000 C 
ATOM      3  N   UNL     1       0.027  -1.036   0.074  0.00  0.00    +0.000 N 
ATOM      4  C   UNL     1       0.855   0.053  -0.006  0.00  0.00    +0.000 C 
ATOM      5  S   UNL     1       2.502   0.018  -0.035  0.00  0.00    +0.000 S 
ATOM      6  N   UNL     1       0.071   1.190  -0.060  0.00  0.00    +0.000 N 
ATOM      7  C   UNL     1      -1.251   0.834  -0.010  0.00  0.00    +0.000 C 
ATOM      8  C   UNL     1      -2.329   1.621  -0.032  0.00  0.00    +0.000 C 
ATOM      9  H   UNL     1       0.339  -1.969   0.123  0.00  0.00    +0.000 HD
ATOM     10  H   UNL     1       0.409   2.112  -0.124  0.00  0.00    +0.000 HD
ENDROOT
BRANCH   8  11
ATOM     11  C   UNL     1      -2.223   3.032  -0.129  0.00  0.00    +0.000 A 
ATOM     12  C   UNL     1      -2.225   3.826  -1.264  0.00  0.00    +0.000 A 
ATOM     13  C   UNL     1      -2.109   5.217  -0.962  0.00  0.00    +0.000 A 
ATOM     14  C   UNL     1      -2.032   5.422   0.390  0.00  0.00    +0.000 A 
ATOM     15 CL   UNL     1      -1.885   6.933   1.190  0.00  0.00    +0.000 Cl
ATOM     16  S   UNL     1      -2.099   3.995   1.293  0.00  0.00    +0.000 S 
ENDBRANCH   8  11
TORSDOF 1
