REMARK  Name = claudia.xyz
REMARK  4 active torsions:
REMARK  status: ('A' for Active; 'I' for Inactive)
REMARK    1  A    between atoms: C_1  and  O_2
REMARK    2  A    between atoms: O_2  and  C_3
REMARK    3  A    between atoms: C_5  and  C_6
REMARK    4  A    between atoms: C_16  and  O_17
REMARK                            x       y       z     vdW  Elec       q    Type
REMARK                         _______ _______ _______ _____ _____    ______ ____
ROOT
ATOM      1  C   UNL     1       3.018   1.083   0.046  0.00  0.00    +0.000 A 
ATOM      2  C   UNL     1       2.393   2.334   0.082  0.00  0.00    +0.000 A 
ATOM      3  C   UNL     1       3.158   3.509   0.094  0.00  0.00    +0.000 A 
ATOM      4  C   UNL     1       4.554   3.435   0.068  0.00  0.00    +0.000 A 
ATOM      5  C   UNL     1       5.187   2.193   0.032  0.00  0.00    +0.000 A 
ATOM      6  C   UNL     1       4.419   1.029   0.021  0.00  0.00    +0.000 A 
ENDROOT
BRANCH   3   7
ATOM      7  C   UNL     1       2.497   4.815   0.139  0.00  0.00    +0.000 C 
ATOM      8  C   UNL     1       2.152   5.460   1.261  0.00  0.00    +0.000 C 
ATOM      9  S   UNL     1       2.382   4.954   2.894  0.00  0.00    +0.000 S 
ATOM     10  C   UNL     1       1.640   6.407   3.531  0.00  0.00    +0.000 C 
ATOM     11  O   UNL     1       1.504   6.647   4.719  0.00  0.00    +0.000 OA
ATOM     12  N   UNL     1       1.249   7.209   2.509  0.00  0.00    +0.000 N 
ATOM     13  C   UNL     1       1.483   6.786   1.235  0.00  0.00    +0.000 C 
ATOM     14  O   UNL     1       1.184   7.408   0.228  0.00  0.00    +0.000 OA
ATOM     15  H   UNL     1       0.810   8.073   2.683  0.00  0.00    +0.000 HD
ENDBRANCH   3   7
BRANCH   1  17
ATOM     16  C   UNL     1       0.947  -0.102   0.085  0.00  0.00    +0.000 C 
ATOM     17  O   UNL     1       2.365  -0.122   0.031  0.00  0.00    +0.000 OA
ENDBRANCH   1  17
BRANCH   6  18
ATOM     18  O   UNL     1       5.039  -0.192  -0.015  0.00  0.00    +0.000 OA
ATOM     19  H   UNL     1       5.975  -0.242  -0.032  0.00  0.00    +0.000 HD
ENDBRANCH   6  18
TORSDOF 3
