REMARK  Name = claudia.xyz
REMARK  1 active torsions:
REMARK  status: ('A' for Active; 'I' for Inactive)
REMARK    1  A    between atoms: C_8  and  C_9
REMARK                            x       y       z     vdW  Elec       q    Type
REMARK                         _______ _______ _______ _____ _____    ______ ____
ROOT
ATOM      1  C   UNL     1      -2.762   2.727   0.015  0.00  0.00    +0.000 A 
ATOM      2  C   UNL     1      -2.262   3.511  -1.030  0.00  0.00    +0.000 A 
ATOM      3  F   UNL     1      -1.629   2.928  -2.060  0.00  0.00    +0.000 F 
ATOM      4  C   UNL     1      -2.411   4.895  -1.017  0.00  0.00    +0.000 A 
ATOM      5  F   UNL     1      -1.927   5.629  -2.028  0.00  0.00    +0.000 F 
ATOM      6  C   UNL     1      -3.062   5.513   0.041  0.00  0.00    +0.000 A 
ATOM      7  F   UNL     1      -3.207   6.846   0.053  0.00  0.00    +0.000 F 
ATOM      8  C   UNL     1      -3.564   4.751   1.086  0.00  0.00    +0.000 A 
ATOM      9  F   UNL     1      -4.194   5.346   2.108  0.00  0.00    +0.000 F 
ATOM     10  C   UNL     1      -3.415   3.367   1.074  0.00  0.00    +0.000 A 
ATOM     11  F   UNL     1      -3.905   2.644   2.092  0.00  0.00    +0.000 F 
ENDROOT
BRANCH   1  19
ATOM     12  O   UNL     1      -2.215  -1.616   0.013  0.00  0.00    +0.000 OA
ATOM     13  C   UNL     1      -1.405  -0.847   0.505  0.00  0.00    +0.000 C 
ATOM     14  N   UNL     1      -0.238  -1.220   1.110  0.00  0.00    +0.000 N 
ATOM     15  C   UNL     1       0.565  -0.242   1.612  0.00  0.00    +0.000 C 
ATOM     16  S   UNL     1       2.006  -0.534   2.371  0.00  0.00    +0.000 S 
ATOM     17  S   UNL     1      -0.162   1.325   1.327  0.00  0.00    +0.000 S 
ATOM     18  C   UNL     1      -1.533   0.634   0.538  0.00  0.00    +0.000 C 
ATOM     19  C   UNL     1      -2.586   1.271   0.012  0.00  0.00    +0.000 C 
ATOM     20  H   UNL     1       0.015  -2.168   1.181  0.00  0.00    +0.000 HD
ENDBRANCH   1  19
TORSDOF 1
