REMARK  Name = claudia.xyz
REMARK  1 active torsions:
REMARK  status: ('A' for Active; 'I' for Inactive)
REMARK    1  A    between atoms: C_7  and  C_8
REMARK                            x       y       z     vdW  Elec       q    Type
REMARK                         _______ _______ _______ _____ _____    ______ ____
ROOT
ATOM      1  O   UNL     1       2.452  -0.183   0.606  0.00  0.00    +0.000 OA
ATOM      2  C   UNL     1       1.263  -0.067   0.371  0.00  0.00    +0.000 C 
ATOM      3  N   UNL     1       0.375  -1.088   0.159  0.00  0.00    +0.000 N 
ATOM      4  C   UNL     1      -0.883  -0.615  -0.084  0.00  0.00    +0.000 C 
ATOM      5  O   UNL     1      -1.893  -1.250  -0.314  0.00  0.00    +0.000 OA
ATOM      6  C   UNL     1      -0.747   0.872  -0.006  0.00  0.00    +0.000 C 
ATOM      7  C   UNL     1      -1.754   1.727  -0.198  0.00  0.00    +0.000 C 
ATOM      8  N   UNL     1       0.567   1.125   0.265  0.00  0.00    +0.000 N 
ATOM      9  H   UNL     1       0.613  -2.043   0.180  0.00  0.00    +0.000 HD
ATOM     10  H   UNL     1       0.961   2.021   0.368  0.00  0.00    +0.000 HD
ENDROOT
BRANCH   7  11
ATOM     11  C   UNL     1      -1.606   3.143  -0.142  0.00  0.00    +0.000 A 
ATOM     12  S   UNL     1      -2.167   4.076  -1.483  0.00  0.00    +0.000 S 
ATOM     13  C   UNL     1      -1.692   5.548  -0.762  0.00  0.00    +0.000 A 
ATOM     14  C   UNL     1      -1.144   5.355   0.484  0.00  0.00    +0.000 A 
ATOM     15  C   UNL     1      -1.105   3.978   0.846  0.00  0.00    +0.000 A 
ATOM     16 CL   UNL     1      -0.505   3.488   2.377  0.00  0.00    +0.000 Cl
ENDBRANCH   7  11
TORSDOF 1
