REMARK  Name = claudia.xyz
REMARK  2 active torsions:
REMARK  status: ('A' for Active; 'I' for Inactive)
REMARK    1  A    between atoms: C_1  and  C_2
REMARK    2  A    between atoms: C_2  and  C_10
REMARK                            x       y       z     vdW  Elec       q    Type
REMARK                         _______ _______ _______ _____ _____    ______ ____
ROOT
ATOM      1  C   UNL     1       1.005   0.081  -0.121  0.00  0.00    +0.000 C 
ATOM      2  C   UNL     1       2.505   0.135   0.013  0.00  0.00    +0.000 C 
ATOM      3  C   UNL     1       3.242  -0.586   0.882  0.00  0.00    +0.000 C 
ATOM      4  S   UNL     1       4.980  -0.555   1.010  0.00  0.00    +0.000 S 
ATOM      5  C   UNL     1       5.010  -1.729   2.298  0.00  0.00    +0.000 C 
ATOM      6  S   UNL     1       6.351  -2.320   3.067  0.00  0.00    +0.000 S 
ATOM      7  N   UNL     1       3.740  -2.107   2.600  0.00  0.00    +0.000 N 
ATOM      8  C   UNL     1       2.708  -1.529   1.914  0.00  0.00    +0.000 C 
ATOM      9  O   UNL     1       1.535  -1.755   2.158  0.00  0.00    +0.000 OA
ATOM     10  H   UNL     1       3.567  -2.780   3.297  0.00  0.00    +0.000 HD
ENDROOT
BRANCH   2  11
ATOM     11  C   UNL     1       3.135   1.078  -0.934  0.00  0.00    +0.000 A 
ATOM     12  C   UNL     1       3.527   0.646  -2.209  0.00  0.00    +0.000 A 
ATOM     13  C   UNL     1       4.126   1.541  -3.098  0.00  0.00    +0.000 A 
ATOM     14  C   UNL     1       4.331   2.860  -2.709  0.00  0.00    +0.000 A 
ATOM     15  F   UNL     1       4.906   3.717  -3.562  0.00  0.00    +0.000 F 
ATOM     16  C   UNL     1       3.947   3.304  -1.448  0.00  0.00    +0.000 A 
ATOM     17  C   UNL     1       3.347   2.413  -0.558  0.00  0.00    +0.000 A 
ENDBRANCH   2  11
TORSDOF 1
