REMARK  Name = claudia.xyz
REMARK  2 active torsions:
REMARK  status: ('A' for Active; 'I' for Inactive)
REMARK    1  A    between atoms: C_6  and  C_7
REMARK    2  A    between atoms: C_7  and  C_8
REMARK                            x       y       z     vdW  Elec       q    Type
REMARK                         _______ _______ _______ _____ _____    ______ ____
ROOT
ATOM      1  O   UNL     1      -1.687  -1.754   0.046  0.00  0.00    +0.000 OA
ATOM      2  C   UNL     1      -0.823  -0.896   0.004  0.00  0.00    +0.000 C 
ATOM      3  N   UNL     1       0.494  -1.118  -0.210  0.00  0.00    +0.000 N 
ATOM      4  C   UNL     1       1.358  -0.070  -0.118  0.00  0.00    +0.000 C 
ATOM      5  O   UNL     1       2.573  -0.204  -0.179  0.00  0.00    +0.000 OA
ATOM      6  C   UNL     1       0.640   1.253   0.056  0.00  0.00    +0.000 C 
ATOM      7  S   UNL     1      -1.122   0.802   0.252  0.00  0.00    +0.000 S 
ATOM      8  H   UNL     1       0.822  -2.020  -0.427  0.00  0.00    +0.000 HD
ENDROOT
BRANCH   6   9
ATOM      9  C   UNL     1       1.209   2.016   1.254  0.00  0.00    +0.000 C 
BRANCH   9  10
ATOM     10  C   UNL     1       0.717   3.441   1.345  0.00  0.00    +0.000 A 
ATOM     11  C   UNL     1      -0.297   3.791   2.246  0.00  0.00    +0.000 A 
ATOM     12  C   UNL     1      -0.757   5.107   2.317  0.00  0.00    +0.000 A 
ATOM     13  C   UNL     1      -0.207   6.085   1.490  0.00  0.00    +0.000 A 
ATOM     14  C   UNL     1       0.803   5.748   0.591  0.00  0.00    +0.000 A 
ATOM     15  C   UNL     1       1.264   4.433   0.518  0.00  0.00    +0.000 A 
ENDBRANCH   9  10
ENDBRANCH   6   9
TORSDOF 2
