REMARK  Name = claudia.xyz
REMARK  5 active torsions:
REMARK  status: ('A' for Active; 'I' for Inactive)
REMARK    1  A    between atoms: C_1  and  C_2
REMARK    2  A    between atoms: C_2  and  C_3
REMARK    3  A    between atoms: C_3  and  C_4
REMARK    4  A    between atoms: C_4  and  C_5
REMARK    5  A    between atoms: C_5  and  C_6
REMARK                            x       y       z     vdW  Elec       q    Type
REMARK                         _______ _______ _______ _____ _____    ______ ____
ROOT
ATOM      1  C   UNL     1       6.566   2.846  -0.169  0.00  0.00    +0.000 C 
ATOM      2  C   UNL     1       7.424   3.202   0.790  0.00  0.00    +0.000 C 
ATOM      3  N   UNL     1       7.139   3.721   2.021  0.00  0.00    +0.000 N 
ATOM      4  C   UNL     1       8.317   3.944   2.710  0.00  0.00    +0.000 C 
ATOM      5  S   UNL     1       8.435   4.559   4.235  0.00  0.00    +0.000 S 
ATOM      6  N   UNL     1       9.363   3.565   1.911  0.00  0.00    +0.000 N 
ATOM      7  C   UNL     1       8.919   3.092   0.704  0.00  0.00    +0.000 C 
ATOM      8  O   UNL     1       9.579   2.675  -0.227  0.00  0.00    +0.000 OA
ATOM      9  H   UNL     1       6.236   3.907   2.364  0.00  0.00    +0.000 HD
ATOM     10  H   UNL     1      10.311   3.626   2.170  0.00  0.00    +0.000 HD
ENDROOT
BRANCH   1  11
ATOM     11  C   UNL     1       5.069   2.950  -0.113  0.00  0.00    +0.000 C 
BRANCH  11  12
ATOM     12  C   UNL     1       4.375   1.587  -0.187  0.00  0.00    +0.000 C 
BRANCH  12  13
ATOM     13  C   UNL     1       4.635   0.714   1.045  0.00  0.00    +0.000 C 
BRANCH  13  15
ATOM     14  C   UNL     1       4.115  -1.474   2.182  0.00  0.00    +0.000 C 
ATOM     15  C   UNL     1       3.860  -0.602   0.964  0.00  0.00    +0.000 C 
ENDBRANCH  13  15
ENDBRANCH  12  13
ENDBRANCH  11  12
ENDBRANCH   1  11
TORSDOF 4
