REMARK  Name = claudia.xyz
REMARK  3 active torsions:
REMARK  status: ('A' for Active; 'I' for Inactive)
REMARK    1  A    between atoms: C_1  and  O_2
REMARK    2  A    between atoms: O_2  and  C_3
REMARK    3  A    between atoms: C_7  and  C_8
REMARK                            x       y       z     vdW  Elec       q    Type
REMARK                         _______ _______ _______ _____ _____    ______ ____
ROOT
ATOM      1  C   UNL     1       6.412  -2.005   1.539  0.00  0.00    +0.000 C 
ATOM      2  C   UNL     1       7.525  -1.750   0.840  0.00  0.00    +0.000 C 
ATOM      3  S   UNL     1       7.684  -1.513  -0.861  0.00  0.00    +0.000 S 
ATOM      4  C   UNL     1       9.415  -1.273  -0.745  0.00  0.00    +0.000 C 
ATOM      5  O   UNL     1      10.146  -1.055  -1.696  0.00  0.00    +0.000 OA
ATOM      6  N   UNL     1       9.807  -1.372   0.550  0.00  0.00    +0.000 N 
ATOM      7  C   UNL     1       8.856  -1.637   1.490  0.00  0.00    +0.000 C 
ATOM      8  O   UNL     1       9.075  -1.766   2.684  0.00  0.00    +0.000 OA
ATOM      9  H   UNL     1      10.751  -1.255   0.804  0.00  0.00    +0.000 HD
ENDROOT
BRANCH   1  14
ATOM     10  C   UNL     1       3.011  -1.102   0.183  0.00  0.00    +0.000 A 
ATOM     11  C   UNL     1       2.516  -2.364  -0.148  0.00  0.00    +0.000 A 
ATOM     12  C   UNL     1       3.293  -3.504   0.076  0.00  0.00    +0.000 A 
ATOM     13  C   UNL     1       4.568  -3.389   0.630  0.00  0.00    +0.000 A 
ATOM     14  C   UNL     1       5.072  -2.130   0.964  0.00  0.00    +0.000 A 
ATOM     15  C   UNL     1       4.290  -0.992   0.739  0.00  0.00    +0.000 A 
BRANCH  10  17
ATOM     16  C   UNL     1       1.067   0.035  -0.578  0.00  0.00    +0.000 C 
ATOM     17  O   UNL     1       2.357   0.088   0.017  0.00  0.00    +0.000 OA
ENDBRANCH  10  17
ENDBRANCH   1  14
TORSDOF 2
