REMARK  Name = claudia.xyz
REMARK  2 active torsions:
REMARK  status: ('A' for Active; 'I' for Inactive)
REMARK    1  A    between atoms: C_1  and  C_2
REMARK    2  A    between atoms: C_6  and  C_7
REMARK                            x       y       z     vdW  Elec       q    Type
REMARK                         _______ _______ _______ _____ _____    ______ ____
ROOT
ATOM      1  C   UNL     1       2.538  -1.117   1.080  0.00  0.00    +0.000 C 
ATOM      2  C   UNL     1       2.252  -0.043   0.073  0.00  0.00    +0.000 C 
ATOM      3  O   UNL     1       1.339   0.766   0.186  0.00  0.00    +0.000 OA
ATOM      4  N   UNL     1       3.118  -0.008  -1.045  0.00  0.00    +0.000 N 
ATOM      5  C   UNL     1       4.186  -0.862  -1.282  0.00  0.00    +0.000 A 
ATOM      6  C   UNL     1       4.811  -0.502  -2.451  0.00  0.00    +0.000 A 
ATOM      7  C   UNL     1       4.088   0.584  -3.011  0.00  0.00    +0.000 A 
ATOM      8  C   UNL     1       4.207   1.332  -4.205  0.00  0.00    +0.000 A 
ATOM      9  C   UNL     1       3.320   2.379  -4.466  0.00  0.00    +0.000 A 
ATOM     10  C   UNL     1       2.314   2.687  -3.562  0.00  0.00    +0.000 A 
ATOM     11  C   UNL     1       2.161   1.952  -2.383  0.00  0.00    +0.000 A 
ATOM     12  C   UNL     1       3.053   0.893  -2.118  0.00  0.00    +0.000 A 
ENDROOT
BRANCH   6  13
ATOM     13  C   UNL     1       5.962  -1.177  -2.956  0.00  0.00    +0.000 C 
ATOM     14  C   UNL     1       7.096  -0.606  -3.371  0.00  0.00    +0.000 C 
ATOM     15  N   UNL     1       7.425   0.723  -3.389  0.00  0.00    +0.000 N 
ATOM     16  C   UNL     1       8.709   0.873  -3.876  0.00  0.00    +0.000 C 
ATOM     17  S   UNL     1       9.507   2.302  -4.064  0.00  0.00    +0.000 S 
ATOM     18  N   UNL     1       9.204  -0.370  -4.172  0.00  0.00    +0.000 N 
ATOM     19  C   UNL     1       8.289  -1.349  -3.887  0.00  0.00    +0.000 C 
ATOM     20  O   UNL     1       8.410  -2.551  -4.014  0.00  0.00    +0.000 OA
ATOM     21  H   UNL     1       6.837   1.458  -3.101  0.00  0.00    +0.000 HD
ATOM     22  H   UNL     1      10.101  -0.538  -4.541  0.00  0.00    +0.000 HD
ENDBRANCH   6  13
TORSDOF 1
