REMARK  Name = claudia.xyz
REMARK  1 active torsions:
REMARK  status: ('A' for Active; 'I' for Inactive)
REMARK    1  A    between atoms: C_8  and  C_9
REMARK                            x       y       z     vdW  Elec       q    Type
REMARK                         _______ _______ _______ _____ _____    ______ ____
ROOT
ATOM      1  O   UNL     1      -2.318  -1.297   0.194  0.00  0.00    +0.000 OA
ATOM      2  C   UNL     1      -1.304  -0.635   0.090  0.00  0.00    +0.000 C 
ATOM      3  N   UNL     1      -0.006  -1.072   0.073  0.00  0.00    +0.000 N 
ATOM      4  C   UNL     1       0.868  -0.021  -0.021  0.00  0.00    +0.000 C 
ATOM      5  S   UNL     1       2.512  -0.128  -0.039  0.00  0.00    +0.000 S 
ATOM      6  N   UNL     1       0.135   1.149  -0.088  0.00  0.00    +0.000 N 
ATOM      7  C   UNL     1      -1.200   0.855  -0.028  0.00  0.00    +0.000 C 
ATOM      8  C   UNL     1      -2.255   1.674  -0.036  0.00  0.00    +0.000 C 
ATOM      9  H   UNL     1       0.264  -2.017   0.121  0.00  0.00    +0.000 HD
ATOM     10  H   UNL     1       0.515   2.054  -0.168  0.00  0.00    +0.000 HD
ENDROOT
BRANCH   8  11
ATOM     11  C   UNL     1      -2.158   3.078  -0.166  0.00  0.00    +0.000 A 
ATOM     12  C   UNL     1      -1.318   3.978  -0.792  0.00  0.00    +0.000 A 
ATOM     13  N   UNL     1      -1.720   5.270  -0.569  0.00  0.00    +0.000 NA
ATOM     14  C   UNL     1      -2.804   5.172   0.163  0.00  0.00    +0.000 A 
ATOM     15  N   UNL     1      -3.119   3.868   0.420  0.00  0.00    +0.000 N 
ATOM     16  H   UNL     1      -3.896   3.550   0.934  0.00  0.00    +0.000 HD
ENDBRANCH   8  11
TORSDOF 1
