REMARK  Name = claudia.xyz
REMARK  1 active torsions:
REMARK  status: ('A' for Active; 'I' for Inactive)
REMARK    1  A    between atoms: C_7  and  C_8
REMARK                            x       y       z     vdW  Elec       q    Type
REMARK                         _______ _______ _______ _____ _____    ______ ____
ROOT
ATOM      1  O   UNL     1       2.541  -0.118   0.075  0.00  0.00    +0.000 OA
ATOM      2  C   UNL     1       1.326  -0.044   0.045  0.00  0.00    +0.000 C 
ATOM      3  N   UNL     1       0.449  -1.095  -0.022  0.00  0.00    +0.000 N 
ATOM      4  C   UNL     1      -0.848  -0.666  -0.049  0.00  0.00    +0.000 C 
ATOM      5  O   UNL     1      -1.860  -1.333  -0.123  0.00  0.00    +0.000 OA
ATOM      6  C   UNL     1      -0.748   0.825   0.017  0.00  0.00    +0.000 C 
ATOM      7  C   UNL     1      -1.784   1.665   0.026  0.00  0.00    +0.000 C 
ATOM      8  N   UNL     1       0.583   1.124   0.067  0.00  0.00    +0.000 N 
ATOM      9  H   UNL     1       0.719  -2.042  -0.047  0.00  0.00    +0.000 HD
ATOM     10  H   UNL     1       0.958   2.033   0.111  0.00  0.00    +0.000 HD
ENDROOT
BRANCH   7  11
ATOM     11  C   UNL     1      -1.648   3.124   0.099  0.00  0.00    +0.000 A 
ATOM     12  C   UNL     1      -1.530   3.841  -1.100  0.00  0.00    +0.000 A 
ATOM     13  C   UNL     1      -1.385   5.230  -1.082  0.00  0.00    +0.000 A 
ATOM     14  C   UNL     1      -1.357   5.908   0.135  0.00  0.00    +0.000 A 
ATOM     15 CL   UNL     1      -1.177   7.618   0.153  0.00  0.00    +0.000 Cl
ATOM     16  C   UNL     1      -1.471   5.212   1.336  0.00  0.00    +0.000 A 
ATOM     17  C   UNL     1      -1.616   3.823   1.318  0.00  0.00    +0.000 A 
ATOM     18 CL   UNL     1      -1.748   3.006   2.836  0.00  0.00    +0.000 Cl
ENDBRANCH   7  11
TORSDOF 1
