REMARK  Name = claudia.xyz
REMARK  5 active torsions:
REMARK  status: ('A' for Active; 'I' for Inactive)
REMARK    1  A    between atoms: C_1  and  C_2
REMARK    2  A    between atoms: C_2  and  C_3
REMARK    3  A    between atoms: C_3  and  C_4
REMARK    4  A    between atoms: C_4  and  C_5
REMARK    5  A    between atoms: C_6  and  C_7
REMARK                            x       y       z     vdW  Elec       q    Type
REMARK                         _______ _______ _______ _____ _____    ______ ____
ROOT
ATOM      1  C   UNL     1       6.379   3.892   2.907  0.00  0.00    +0.000 C 
ATOM      2  S   UNL     1       8.200   3.879   2.886  0.00  0.00    +0.000 S 
ATOM      3  C   UNL     1       8.316   5.596   2.624  0.00  0.00    +0.000 C 
ATOM      4  S   UNL     1       9.715   6.471   2.491  0.00  0.00    +0.000 S 
ATOM      5  N   UNL     1       7.081   6.151   2.534  0.00  0.00    +0.000 N 
ATOM      6  C   UNL     1       5.985   5.342   2.647  0.00  0.00    +0.000 C 
ATOM      7  O   UNL     1       4.840   5.764   2.545  0.00  0.00    +0.000 OA
ATOM      8  H   UNL     1       6.976   7.119   2.389  0.00  0.00    +0.000 HD
ENDROOT
BRANCH   1  10
ATOM      9  C   UNL     1       5.088   1.900   2.081  0.00  0.00    +0.000 C 
ATOM     10  C   UNL     1       5.854   2.978   1.839  0.00  0.00    +0.000 C 
BRANCH   9  11
ATOM     11  C   UNL     1       4.557   0.992   1.008  0.00  0.00    +0.000 C 
BRANCH  11  12
ATOM     12  C   UNL     1       3.028   0.995   0.985  0.00  0.00    +0.000 C 
BRANCH  12  14
ATOM     13  C   UNL     1       0.967   0.056  -0.121  0.00  0.00    +0.000 C 
ATOM     14  C   UNL     1       2.487   0.061  -0.098  0.00  0.00    +0.000 C 
ENDBRANCH  12  14
ENDBRANCH  11  12
ENDBRANCH   9  11
ENDBRANCH   1  10
TORSDOF 4
