REMARK  Name = claudia.xyz
REMARK  1 active torsions:
REMARK  status: ('A' for Active; 'I' for Inactive)
REMARK    1  A    between atoms: C_7  and  C_8
REMARK                            x       y       z     vdW  Elec       q    Type
REMARK                         _______ _______ _______ _____ _____    ______ ____
ROOT
ATOM      1  O   UNL     1      -2.415  -0.985   0.453  0.00  0.00    +0.000 OA
ATOM      2  C   UNL     1      -1.278  -0.579   0.282  0.00  0.00    +0.000 C 
ATOM      3  N   UNL     1      -0.196  -1.347   0.003  0.00  0.00    +0.000 N 
ATOM      4  C   UNL     1       1.005  -0.726  -0.162  0.00  0.00    +0.000 C 
ATOM      5  O   UNL     1       2.052  -1.299  -0.418  0.00  0.00    +0.000 OA
ATOM      6  C   UNL     1       0.847   0.744   0.015  0.00  0.00    +0.000 C 
ATOM      7  C   UNL     1       1.908   1.552  -0.106  0.00  0.00    +0.000 C 
ATOM      8  S   UNL     1      -0.803   1.102   0.362  0.00  0.00    +0.000 S 
ATOM      9  H   UNL     1      -0.276  -2.325  -0.079  0.00  0.00    +0.000 HD
ENDROOT
BRANCH   7  10
ATOM     10  C   UNL     1       1.898   2.968   0.037  0.00  0.00    +0.000 A 
ATOM     11  C   UNL     1       2.969   3.846  -0.108  0.00  0.00    +0.000 A 
ATOM     12  C   UNL     1       2.498   5.159   0.127  0.00  0.00    +0.000 A 
ATOM     13  C   UNL     1       1.163   5.030   0.406  0.00  0.00    +0.000 A 
ATOM     14  O   UNL     1       0.796   3.729   0.355  0.00  0.00    +0.000 OA
ENDBRANCH   7  10
TORSDOF 1
