REMARK  Name = claudia.xyz
REMARK  5 active torsions:
REMARK  status: ('A' for Active; 'I' for Inactive)
REMARK    1  A    between atoms: C_1  and  C_2
REMARK    2  A    between atoms: C_10  and  C_11
REMARK    3  A    between atoms: C_11  and  C_12
REMARK    4  A    between atoms: C_12  and  C_13
REMARK    5  A    between atoms: C_12  and  C_14
REMARK                            x       y       z     vdW  Elec       q    Type
REMARK                         _______ _______ _______ _____ _____    ______ ____
ROOT
ATOM      1  C   UNL     1       2.961  -0.266  -1.403  0.00  0.00    +0.000 C 
ATOM      2  C   UNL     1       2.453   0.169  -0.057  0.00  0.00    +0.000 C 
ATOM      3  O   UNL     1       1.302  -0.115   0.285  0.00  0.00    +0.000 OA
ATOM      4  N   UNL     1       3.302   0.917   0.771  0.00  0.00    +0.000 N 
ATOM      5  C   UNL     1       4.446   1.722   0.505  0.00  0.00    +0.000 C 
ATOM      6  S   UNL     1       5.330   1.940  -0.879  0.00  0.00    +0.000 S 
ATOM      7  N   UNL     1       4.766   2.404   1.642  0.00  0.00    +0.000 N 
ATOM      8  C   UNL     1       3.902   2.136   2.654  0.00  0.00    +0.000 C 
ATOM      9  O   UNL     1       3.965   2.618   3.773  0.00  0.00    +0.000 OA
ATOM     10  C   UNL     1       2.857   1.163   2.142  0.00  0.00    +0.000 C 
ATOM     11  H   UNL     1       5.532   3.018   1.720  0.00  0.00    +0.000 HD
ENDROOT
BRANCH  10  12
ATOM     12  C   UNL     1       2.701  -0.078   3.035  0.00  0.00    +0.000 C 
BRANCH  12  13
ATOM     13  C   UNL     1       3.806  -1.156   2.956  0.00  0.00    +0.000 C 
ATOM     14  C   UNL     1       5.146  -0.694   3.527  0.00  0.00    +0.000 C 
ATOM     15  C   UNL     1       3.344  -2.408   3.714  0.00  0.00    +0.000 C 
ENDBRANCH  12  13
ENDBRANCH  10  12
TORSDOF 2
