REMARK  Name = claudia.xyz
REMARK  1 active torsions:
REMARK  status: ('A' for Active; 'I' for Inactive)
REMARK    1  A    between atoms: C_7  and  C_8
REMARK                            x       y       z     vdW  Elec       q    Type
REMARK                         _______ _______ _______ _____ _____    ______ ____
ROOT
ATOM      1  O   UNL     1      -1.867  -0.776  -2.174  0.00  0.00    +0.000 OA
ATOM      2  C   UNL     1      -0.843  -0.457  -1.594  0.00  0.00    +0.000 C 
ATOM      3  N   UNL     1       0.075  -1.311  -1.074  0.00  0.00    +0.000 N 
ATOM      4  C   UNL     1       1.147  -0.781  -0.421  0.00  0.00    +0.000 C 
ATOM      5  O   UNL     1       2.022  -1.431   0.125  0.00  0.00    +0.000 OA
ATOM      6  C   UNL     1       1.075   0.703  -0.461  0.00  0.00    +0.000 C 
ATOM      7  C   UNL     1       2.020   1.476   0.089  0.00  0.00    +0.000 C 
ATOM      8  S   UNL     1      -0.352   1.198  -1.294  0.00  0.00    +0.000 S 
ATOM      9  H   UNL     1      -0.030  -2.285  -1.167  0.00  0.00    +0.000 HD
ENDROOT
BRANCH   7  10
ATOM     10  C   UNL     1       2.016   2.944   0.069  0.00  0.00    +0.000 A 
ATOM     11  C   UNL     1       1.375   3.623   1.116  0.00  0.00    +0.000 A 
ATOM     12  C   UNL     1       1.336   5.019   1.133  0.00  0.00    +0.000 A 
ATOM     13  C   UNL     1       1.937   5.742   0.104  0.00  0.00    +0.000 A 
ATOM     14 CL   UNL     1       1.887   7.462   0.130  0.00  0.00    +0.000 Cl
ATOM     15  C   UNL     1       2.579   5.086  -0.943  0.00  0.00    +0.000 A 
ATOM     16  C   UNL     1       2.617   3.689  -0.961  0.00  0.00    +0.000 A 
ATOM     17 CL   UNL     1       3.428   2.920  -2.281  0.00  0.00    +0.000 Cl
ENDBRANCH   7  10
TORSDOF 1
