REMARK  Name = claudia.xyz
REMARK  3 active torsions:
REMARK  status: ('A' for Active; 'I' for Inactive)
REMARK    1  A    between atoms: C_1  and  O_2
REMARK    2  A    between atoms: O_2  and  C_3
REMARK    3  A    between atoms: C_8  and  C_9
REMARK                            x       y       z     vdW  Elec       q    Type
REMARK                         _______ _______ _______ _____ _____    ______ ____
ROOT
ATOM      1  C   UNL     1       4.329   0.254   1.930  0.00  0.00    +0.000 C 
ATOM      2  C   UNL     1       3.785   0.590   3.106  0.00  0.00    +0.000 C 
ATOM      3  S   UNL     1       2.682  -0.320   4.070  0.00  0.00    +0.000 S 
ATOM      4  C   UNL     1       2.588   0.936   5.287  0.00  0.00    +0.000 C 
ATOM      5  O   UNL     1       1.917   0.863   6.302  0.00  0.00    +0.000 OA
ATOM      6  N   UNL     1       3.376   1.981   4.930  0.00  0.00    +0.000 N 
ATOM      7  C   UNL     1       4.082   1.886   3.768  0.00  0.00    +0.000 C 
ATOM      8  O   UNL     1       4.850   2.739   3.352  0.00  0.00    +0.000 OA
ATOM      9  H   UNL     1       3.436   2.786   5.495  0.00  0.00    +0.000 HD
ENDROOT
BRANCH   1  15
ATOM     10  C   UNL     1       3.008  -1.089   0.273  0.00  0.00    +0.000 A 
ATOM     11  C   UNL     1       2.784  -2.306  -0.380  0.00  0.00    +0.000 A 
ATOM     12  C   UNL     1       3.590  -3.415  -0.108  0.00  0.00    +0.000 A 
ATOM     13  C   UNL     1       4.626  -3.321   0.818  0.00  0.00    +0.000 A 
ATOM     14  C   UNL     1       4.860  -2.115   1.476  0.00  0.00    +0.000 A 
ATOM     15  C   UNL     1       4.057  -0.997   1.209  0.00  0.00    +0.000 A 
BRANCH  10  17
ATOM     16  C   UNL     1       1.190  -0.019  -0.844  0.00  0.00    +0.000 C 
ATOM     17  O   UNL     1       2.275   0.053   0.072  0.00  0.00    +0.000 OA
ENDBRANCH  10  17
ENDBRANCH   1  15
TORSDOF 2
