REMARK  Name = claudia.xyz
REMARK  2 active torsions:
REMARK  status: ('A' for Active; 'I' for Inactive)
REMARK    1  A    between atoms: C_1  and  C_2
REMARK    2  A    between atoms: C_2  and  C_10
REMARK                            x       y       z     vdW  Elec       q    Type
REMARK                         _______ _______ _______ _____ _____    ______ ____
ROOT
ATOM      1  C   UNL     1       1.041   0.215  -0.121  0.00  0.00    +0.000 C 
ATOM      2  C   UNL     1       2.526   0.023   0.007  0.00  0.00    +0.000 C 
ATOM      3  C   UNL     1       3.197  -1.122  -0.199  0.00  0.00    +0.000 C 
ATOM      4  N   UNL     1       4.558  -1.283  -0.083  0.00  0.00    +0.000 N 
ATOM      5  C   UNL     1       4.906  -2.587  -0.362  0.00  0.00    +0.000 C 
ATOM      6  S   UNL     1       6.435  -3.203  -0.336  0.00  0.00    +0.000 S 
ATOM      7  N   UNL     1       3.767  -3.280  -0.663  0.00  0.00    +0.000 N 
ATOM      8  C   UNL     1       2.660  -2.475  -0.587  0.00  0.00    +0.000 C 
ATOM      9  O   UNL     1       1.508  -2.804  -0.786  0.00  0.00    +0.000 OA
ATOM     10  H   UNL     1       5.192  -0.570   0.164  0.00  0.00    +0.000 HD
ATOM     11  H   UNL     1       3.744  -4.235  -0.903  0.00  0.00    +0.000 HD
ENDROOT
BRANCH   2  12
ATOM     12  C   UNL     1       3.257   1.245   0.397  0.00  0.00    +0.000 A 
ATOM     13  C   UNL     1       3.785   2.094  -0.583  0.00  0.00    +0.000 A 
ATOM     14  C   UNL     1       4.498   3.235  -0.212  0.00  0.00    +0.000 A 
ATOM     15  C   UNL     1       4.689   3.531   1.137  0.00  0.00    +0.000 A 
ATOM     16  C   UNL     1       4.167   2.688   2.118  0.00  0.00    +0.000 A 
ATOM     17  C   UNL     1       3.453   1.546   1.750  0.00  0.00    +0.000 A 
ENDBRANCH   2  12
TORSDOF 1
