REMARK  Name = claudia.xyz
REMARK  4 active torsions:
REMARK  status: ('A' for Active; 'I' for Inactive)
REMARK    1  A    between atoms: C_1  and  C_2
REMARK    2  A    between atoms: C_2  and  C_3
REMARK    3  A    between atoms: C_2  and  C_4
REMARK    4  A    between atoms: C_4  and  C_5
REMARK                            x       y       z     vdW  Elec       q    Type
REMARK                         _______ _______ _______ _____ _____    ______ ____
ROOT
ATOM      1  C   UNL     1       4.471  -1.387  -0.180  0.00  0.00    +0.000 C 
ATOM      2  N   UNL     1       3.136  -1.306   0.385  0.00  0.00    +0.000 N 
ATOM      3  C   UNL     1       2.172  -1.188  -0.584  0.00  0.00    +0.000 C 
ATOM      4  S   UNL     1       0.557  -1.038  -0.297  0.00  0.00    +0.000 S 
ATOM      5  N   UNL     1       2.764  -1.208  -1.799  0.00  0.00    +0.000 N 
ATOM      6  C   UNL     1       4.119  -1.308  -1.674  0.00  0.00    +0.000 C 
ATOM      7  O   UNL     1       4.907  -1.321  -2.608  0.00  0.00    +0.000 OA
ATOM      8  H   UNL     1       2.945  -1.334   1.351  0.00  0.00    +0.000 HD
ATOM      9  H   UNL     1       2.284  -1.157  -2.657  0.00  0.00    +0.000 HD
ENDROOT
BRANCH   1  10
ATOM     10  C   UNL     1       5.154  -2.694   0.212  0.00  0.00    +0.000 C 
BRANCH  10  12
ATOM     11  C   UNL     1       7.520  -1.734   0.297  0.00  0.00    +0.000 C 
ATOM     12  C   UNL     1       6.615  -2.834  -0.260  0.00  0.00    +0.000 C 
ATOM     13  C   UNL     1       7.159  -4.206   0.150  0.00  0.00    +0.000 C 
ENDBRANCH  10  12
ENDBRANCH   1  10
TORSDOF 2
