REMARK  Name = claudia.xyz
REMARK  1 active torsions:
REMARK  status: ('A' for Active; 'I' for Inactive)
REMARK    1  A    between atoms: C_8  and  C_9
REMARK                            x       y       z     vdW  Elec       q    Type
REMARK                         _______ _______ _______ _____ _____    ______ ____
ROOT
ATOM      1  O   UNL     1      -2.291  -1.370   0.131  0.00  0.00    +0.000 OA
ATOM      2  C   UNL     1      -1.288  -0.687   0.078  0.00  0.00    +0.000 C 
ATOM      3  N   UNL     1       0.020  -1.099   0.080  0.00  0.00    +0.000 N 
ATOM      4  C   UNL     1       0.877  -0.029   0.008  0.00  0.00    +0.000 C 
ATOM      5  S   UNL     1       2.524  -0.111  -0.013  0.00  0.00    +0.000 S 
ATOM      6  N   UNL     1       0.120   1.122  -0.043  0.00  0.00    +0.000 N 
ATOM      7  C   UNL     1      -1.209   0.804  -0.005  0.00  0.00    +0.000 C 
ATOM      8  C   UNL     1      -2.252   1.637  -0.034  0.00  0.00    +0.000 C 
ATOM      9  H   UNL     1       0.307  -2.039   0.127  0.00  0.00    +0.000 HD
ATOM     10  H   UNL     1       0.482   2.036  -0.099  0.00  0.00    +0.000 HD
ENDROOT
BRANCH   8  11
ATOM     11  C   UNL     1      -2.179   3.102  -0.116  0.00  0.00    +0.000 A 
ATOM     12  C   UNL     1      -3.349   3.856  -0.130  0.00  0.00    +0.000 A 
ATOM     13  C   UNL     1      -3.255   5.244  -0.209  0.00  0.00    +0.000 A 
ATOM     14  C   UNL     1      -2.002   5.839  -0.273  0.00  0.00    +0.000 A 
ATOM     15  C   UNL     1      -0.888   5.018  -0.253  0.00  0.00    +0.000 A 
ATOM     16  N   UNL     1      -0.948   3.669  -0.176  0.00  0.00    +0.000 NA
ENDBRANCH   8  11
TORSDOF 1
