REMARK  Name = claudia.xyz
REMARK  2 active torsions:
REMARK  status: ('A' for Active; 'I' for Inactive)
REMARK    1  A    between atoms: C_7  and  C_8
REMARK    2  A    between atoms: C_8  and  C_9
REMARK                            x       y       z     vdW  Elec       q    Type
REMARK                         _______ _______ _______ _____ _____    ______ ____
ROOT
ATOM      1  O   UNL     1       2.285  -1.195  -0.200  0.00  0.00    +0.000 OA
ATOM      2  C   UNL     1       1.342  -0.428  -0.077  0.00  0.00    +0.000 C 
ATOM      3  N   UNL     1       0.047  -0.818   0.103  0.00  0.00    +0.000 N 
ATOM      4  C   UNL     1      -0.768   0.256   0.196  0.00  0.00    +0.000 C 
ATOM      5  S   UNL     1      -2.395   0.217   0.446  0.00  0.00    +0.000 S 
ATOM      6  N   UNL     1      -0.021   1.398   0.054  0.00  0.00    +0.000 N 
ATOM      7  C   UNL     1       1.396   1.107  -0.097  0.00  0.00    +0.000 C 
ATOM      8  H   UNL     1      -0.253  -1.754   0.158  0.00  0.00    +0.000 HD
ATOM      9  H   UNL     1      -0.399   2.307   0.053  0.00  0.00    +0.000 HD
ENDROOT
BRANCH   7  10
ATOM     10  C   UNL     1       1.963   1.641  -1.409  0.00  0.00    +0.000 C 
BRANCH  10  11
ATOM     11  C   UNL     1       3.456   1.800  -1.353  0.00  0.00    +0.000 A 
ATOM     12  C   UNL     1       4.429   0.867  -1.652  0.00  0.00    +0.000 A 
ATOM     13  C   UNL     1       5.745   1.383  -1.479  0.00  0.00    +0.000 A 
ATOM     14  C   UNL     1       5.735   2.693  -1.056  0.00  0.00    +0.000 A 
ATOM     15  S   UNL     1       4.145   3.293  -0.868  0.00  0.00    +0.000 S 
ENDBRANCH  10  11
ENDBRANCH   7  10
TORSDOF 2
