REMARK  Name = claudia.xyz
REMARK  2 active torsions:
REMARK  status: ('A' for Active; 'I' for Inactive)
REMARK    1  A    between atoms: C_8  and  C_9
REMARK    2  A    between atoms: C_10  and  C_11
REMARK                            x       y       z     vdW  Elec       q    Type
REMARK                         _______ _______ _______ _____ _____    ______ ____
ROOT
ATOM      1  O   UNL     1      -2.309  -1.339   0.105  0.00  0.00    +0.000 OA
ATOM      2  C   UNL     1      -1.307  -0.653   0.041  0.00  0.00    +0.000 C 
ATOM      3  N   UNL     1      -0.001  -1.065   0.023  0.00  0.00    +0.000 N 
ATOM      4  C   UNL     1       0.854   0.003  -0.056  0.00  0.00    +0.000 C 
ATOM      5  S   UNL     1       2.500  -0.076  -0.100  0.00  0.00    +0.000 S 
ATOM      6  N   UNL     1       0.101   1.161  -0.092  0.00  0.00    +0.000 N 
ATOM      7  C   UNL     1      -1.228   0.842  -0.036  0.00  0.00    +0.000 C 
ATOM      8  C   UNL     1      -2.285   1.658  -0.045  0.00  0.00    +0.000 C 
ATOM      9  H   UNL     1       0.286  -2.006   0.061  0.00  0.00    +0.000 HD
ATOM     10  H   UNL     1       0.465   2.074  -0.148  0.00  0.00    +0.000 HD
ENDROOT
BRANCH   8  11
ATOM     11  C   UNL     1      -2.230   3.103  -0.121  0.00  0.00    +0.000 C 
ATOM     12  C   UNL     1      -3.329   3.873  -0.121  0.00  0.00    +0.000 C 
BRANCH  12  13
ATOM     13  C   UNL     1      -3.231   5.290  -0.200  0.00  0.00    +0.000 A 
ATOM     14  C   UNL     1      -4.256   6.230  -0.205  0.00  0.00    +0.000 A 
ATOM     15  C   UNL     1      -3.672   7.515  -0.299  0.00  0.00    +0.000 A 
ATOM     16  C   UNL     1      -2.318   7.307  -0.349  0.00  0.00    +0.000 A 
ATOM     17  O   UNL     1      -2.041   5.982  -0.290  0.00  0.00    +0.000 OA
ENDBRANCH  12  13
ENDBRANCH   8  11
TORSDOF 2
