REMARK  Name = claudia.xyz
REMARK  2 active torsions:
REMARK  status: ('A' for Active; 'I' for Inactive)
REMARK    1  A    between atoms: C_2  and  C_3
REMARK    2  A    between atoms: C_6  and  C_7
REMARK                            x       y       z     vdW  Elec       q    Type
REMARK                         _______ _______ _______ _____ _____    ______ ____
ROOT
ATOM      1  C   UNL     1       3.798  -0.064   0.104  0.00  0.00    +0.000 C 
ATOM      2  C   UNL     1       4.591  -0.086  -0.974  0.00  0.00    +0.000 C 
ATOM      3  S   UNL     1       4.129  -0.086  -2.637  0.00  0.00    +0.000 S 
ATOM      4  C   UNL     1       5.791  -0.125  -3.183  0.00  0.00    +0.000 C 
ATOM      5  S   UNL     1       6.311  -0.146  -4.754  0.00  0.00    +0.000 S 
ATOM      6  N   UNL     1       6.628  -0.137  -2.109  0.00  0.00    +0.000 N 
ATOM      7  C   UNL     1       6.074  -0.118  -0.861  0.00  0.00    +0.000 C 
ATOM      8  O   UNL     1       6.705  -0.126   0.183  0.00  0.00    +0.000 OA
ATOM      9  H   UNL     1       7.605  -0.159  -2.230  0.00  0.00    +0.000 HD
ENDROOT
BRANCH   1  13
ATOM     10  C   UNL     1      -0.467   0.019  -0.019  0.00  0.00    +0.000 A 
ATOM     11  C   UNL     1       0.211  -1.204   0.010  0.00  0.00    +0.000 A 
ATOM     12  C   UNL     1       1.608  -1.230   0.052  0.00  0.00    +0.000 A 
ATOM     13  C   UNL     1       2.335  -0.035   0.067  0.00  0.00    +0.000 A 
ATOM     14  C   UNL     1       1.656   1.188   0.037  0.00  0.00    +0.000 A 
ATOM     15  C   UNL     1       0.259   1.215  -0.005  0.00  0.00    +0.000 A 
BRANCH  10  17
ATOM     16  N   UNL     1      -3.059   0.069  -0.094  0.00  0.00    +0.000 NA
ATOM     17  C   UNL     1      -1.900   0.047  -0.062  0.00  0.00    +0.000 C 
ENDBRANCH  10  17
ENDBRANCH   1  13
TORSDOF 2
