REMARK  Name = claudia.xyz
REMARK  1 active torsions:
REMARK  status: ('A' for Active; 'I' for Inactive)
REMARK    1  A    between atoms: C_7  and  C_8
REMARK                            x       y       z     vdW  Elec       q    Type
REMARK                         _______ _______ _______ _____ _____    ______ ____
ROOT
ATOM      1  O   UNL     1       2.459  -0.192  -0.474  0.00  0.00    +0.000 OA
ATOM      2  C   UNL     1       1.267  -0.072  -0.256  0.00  0.00    +0.000 C 
ATOM      3  N   UNL     1       0.378  -1.089  -0.020  0.00  0.00    +0.000 N 
ATOM      4  C   UNL     1      -0.883  -0.611   0.195  0.00  0.00    +0.000 C 
ATOM      5  O   UNL     1      -1.894  -1.241   0.436  0.00  0.00    +0.000 OA
ATOM      6  C   UNL     1      -0.750   0.872   0.067  0.00  0.00    +0.000 C 
ATOM      7  C   UNL     1      -1.758   1.735   0.218  0.00  0.00    +0.000 C 
ATOM      8  N   UNL     1       0.567   1.120  -0.200  0.00  0.00    +0.000 N 
ATOM      9  H   UNL     1       0.619  -2.043  -0.007  0.00  0.00    +0.000 HD
ATOM     10  H   UNL     1       0.959   2.013  -0.332  0.00  0.00    +0.000 HD
ENDROOT
BRANCH   7  11
ATOM     11  C   UNL     1      -1.595   3.143   0.105  0.00  0.00    +0.000 A 
ATOM     12  S   UNL     1      -2.004   4.134   1.458  0.00  0.00    +0.000 S 
ATOM     13  C   UNL     1      -1.574   5.571   0.639  0.00  0.00    +0.000 A 
ATOM     14  C   UNL     1      -1.152   5.326  -0.648  0.00  0.00    +0.000 A 
ATOM     15  C   UNL     1      -1.178   3.939  -0.947  0.00  0.00    +0.000 A 
ATOM     16 BR   UNL     1      -0.694   3.336  -2.677  0.00  0.00    +0.000 Br
ENDBRANCH   7  11
TORSDOF 1
