REMARK  Name = claudia.xyz
REMARK  4 active torsions:
REMARK  status: ('A' for Active; 'I' for Inactive)
REMARK    1  A    between atoms: C_1  and  N_2
REMARK    2  A    between atoms: N_2  and  C_3
REMARK    3  A    between atoms: N_2  and  C_4
REMARK    4  A    between atoms: C_7  and  C_8
REMARK                            x       y       z     vdW  Elec       q    Type
REMARK                         _______ _______ _______ _____ _____    ______ ____
ROOT
ATOM      1  C   UNL     1       3.003   0.472  -1.173  0.00  0.00    +0.000 A 
ATOM      2  C   UNL     1       2.424   1.570  -1.834  0.00  0.00    +0.000 A 
ATOM      3  C   UNL     1       3.070   2.244  -2.881  0.00  0.00    +0.000 A 
ATOM      4  C   UNL     1       4.330   1.836  -3.310  0.00  0.00    +0.000 A 
ATOM      5  C   UNL     1       4.921   0.736  -2.694  0.00  0.00    +0.000 A 
ATOM      6  C   UNL     1       4.263   0.068  -1.649  0.00  0.00    +0.000 A 
ENDROOT
BRANCH   4   7
ATOM      7  C   UNL     1       4.990   2.543  -4.409  0.00  0.00    +0.000 C 
ATOM      8  C   UNL     1       6.087   3.303  -4.301  0.00  0.00    +0.000 C 
ATOM      9  S   UNL     1       7.003   3.666  -2.885  0.00  0.00    +0.000 S 
ATOM     10  C   UNL     1       8.117   4.686  -3.771  0.00  0.00    +0.000 C 
ATOM     11  O   UNL     1       9.059   5.275  -3.269  0.00  0.00    +0.000 OA
ATOM     12  N   UNL     1       7.771   4.714  -5.083  0.00  0.00    +0.000 N 
ATOM     13  C   UNL     1       6.679   3.999  -5.474  0.00  0.00    +0.000 C 
ATOM     14  O   UNL     1       6.256   3.945  -6.617  0.00  0.00    +0.000 OA
ATOM     15  H   UNL     1       8.293   5.236  -5.733  0.00  0.00    +0.000 HD
ENDBRANCH   4   7
BRANCH   1  17
ATOM     16  C   UNL     1       1.256   0.478   0.563  0.00  0.00    +0.000 C 
ATOM     17  N   UNL     1       2.342  -0.204  -0.139  0.00  0.00    +0.000 N 
ATOM     18  C   UNL     1       3.075  -1.195   0.647  0.00  0.00    +0.000 C 
ENDBRANCH   1  17
TORSDOF 2
