REMARK  Name = claudia.xyz
REMARK  1 active torsions:
REMARK  status: ('A' for Active; 'I' for Inactive)
REMARK    1  A    between atoms: C_8  and  C_9
REMARK                            x       y       z     vdW  Elec       q    Type
REMARK                         _______ _______ _______ _____ _____    ______ ____
ROOT
ATOM      1  C   UNL     1      -2.705   2.700   0.017  0.00  0.00    +0.000 A 
ATOM      2  C   UNL     1      -3.334   3.440   0.992  0.00  0.00    +0.000 A 
ATOM      3  N   UNL     1      -3.309   4.751   0.595  0.00  0.00    +0.000 N 
ATOM      4  C   UNL     1      -2.688   4.869  -0.630  0.00  0.00    +0.000 A 
ATOM      5  C   UNL     1      -2.445   6.005  -1.411  0.00  0.00    +0.000 A 
ATOM      6  C   UNL     1      -1.785   5.823  -2.630  0.00  0.00    +0.000 A 
ATOM      7  C   UNL     1      -1.385   4.556  -3.049  0.00  0.00    +0.000 A 
ATOM      8  C   UNL     1      -1.634   3.431  -2.255  0.00  0.00    +0.000 A 
ATOM      9  C   UNL     1      -2.298   3.587  -1.021  0.00  0.00    +0.000 A 
ATOM     10  H   UNL     1      -3.682   5.502   1.111  0.00  0.00    +0.000 HD
ENDROOT
BRANCH   1  18
ATOM     11  O   UNL     1      -2.216  -1.605   0.128  0.00  0.00    +0.000 OA
ATOM     12  C   UNL     1      -1.389  -0.839   0.594  0.00  0.00    +0.000 C 
ATOM     13  N   UNL     1      -0.224  -1.223   1.196  0.00  0.00    +0.000 N 
ATOM     14  C   UNL     1       0.604  -0.252   1.669  0.00  0.00    +0.000 C 
ATOM     15  S   UNL     1       2.045  -0.562   2.422  0.00  0.00    +0.000 S 
ATOM     16  S   UNL     1      -0.091   1.322   1.358  0.00  0.00    +0.000 S 
ATOM     17  C   UNL     1      -1.485   0.643   0.597  0.00  0.00    +0.000 C 
ATOM     18  C   UNL     1      -2.532   1.288   0.067  0.00  0.00    +0.000 C 
ATOM     19  H   UNL     1       0.010  -2.175   1.285  0.00  0.00    +0.000 HD
ENDBRANCH   1  18
TORSDOF 1
