REMARK  Name = claudia.xyz
REMARK  1 active torsions:
REMARK  status: ('A' for Active; 'I' for Inactive)
REMARK    1  A    between atoms: C_8  and  C_9
REMARK                            x       y       z     vdW  Elec       q    Type
REMARK                         _______ _______ _______ _____ _____    ______ ____
ROOT
ATOM      1  O   UNL     1      -2.268  -1.288   0.579  0.00  0.00    +0.000 OA
ATOM      2  C   UNL     1      -1.300  -0.632   0.250  0.00  0.00    +0.000 C 
ATOM      3  N   UNL     1      -0.025  -1.069   0.005  0.00  0.00    +0.000 N 
ATOM      4  C   UNL     1       0.797  -0.029  -0.339  0.00  0.00    +0.000 C 
ATOM      5  S   UNL     1       2.399  -0.142  -0.709  0.00  0.00    +0.000 S 
ATOM      6  N   UNL     1       0.054   1.136  -0.322  0.00  0.00    +0.000 N 
ATOM      7  C   UNL     1      -1.239   0.848   0.023  0.00  0.00    +0.000 C 
ATOM      8  C   UNL     1      -2.281   1.670   0.169  0.00  0.00    +0.000 C 
ATOM      9  H   UNL     1       0.262  -2.008   0.069  0.00  0.00    +0.000 HD
ATOM     10  H   UNL     1       0.401   2.034  -0.527  0.00  0.00    +0.000 HD
ENDROOT
BRANCH   8  11
ATOM     11  C   UNL     1      -2.207   3.078  -0.030  0.00  0.00    +0.000 A 
ATOM     12  S   UNL     1      -2.781   4.112   1.229  0.00  0.00    +0.000 S 
ATOM     13  C   UNL     1      -2.401   5.526   0.354  0.00  0.00    +0.000 A 
ATOM     14  C   UNL     1      -1.875   5.238  -0.883  0.00  0.00    +0.000 A 
ATOM     15  C   UNL     1      -1.774   3.835  -1.109  0.00  0.00    +0.000 A 
ATOM     16 CL   UNL     1      -1.187   3.227  -2.603  0.00  0.00    +0.000 Cl
ENDBRANCH   8  11
TORSDOF 1
