REMARK  Name = claudia.xyz
REMARK  3 active torsions:
REMARK  status: ('A' for Active; 'I' for Inactive)
REMARK    1  A    between atoms: C_1  and  O_2
REMARK    2  A    between atoms: O_2  and  C_3
REMARK    3  A    between atoms: C_8  and  C_9
REMARK                            x       y       z     vdW  Elec       q    Type
REMARK                         _______ _______ _______ _____ _____    ______ ____
ROOT
ATOM      1  C   UNL     1       4.373   0.073  -2.117  0.00  0.00    +0.000 C 
ATOM      2  C   UNL     1       3.793  -0.218  -3.284  0.00  0.00    +0.000 C 
ATOM      3  N   UNL     1       2.822   0.486  -3.935  0.00  0.00    +0.000 N 
ATOM      4  C   UNL     1       2.488  -0.156  -5.113  0.00  0.00    +0.000 C 
ATOM      5  O   UNL     1       1.653   0.212  -5.920  0.00  0.00    +0.000 OA
ATOM      6  N   UNL     1       3.267  -1.280  -5.210  0.00  0.00    +0.000 N 
ATOM      7  C   UNL     1       4.102  -1.406  -4.135  0.00  0.00    +0.000 C 
ATOM      8  O   UNL     1       4.922  -2.277  -3.922  0.00  0.00    +0.000 OA
ATOM      9  H   UNL     1       2.420   1.326  -3.614  0.00  0.00    +0.000 HD
ATOM     10  H   UNL     1       3.229  -1.917  -5.960  0.00  0.00    +0.000 HD
ENDROOT
BRANCH   1  16
ATOM     11  C   UNL     1       2.946   1.263  -0.425  0.00  0.00    +0.000 A 
ATOM     12  C   UNL     1       2.645   2.435   0.276  0.00  0.00    +0.000 A 
ATOM     13  C   UNL     1       3.413   3.589   0.089  0.00  0.00    +0.000 A 
ATOM     14  C   UNL     1       4.486   3.582  -0.797  0.00  0.00    +0.000 A 
ATOM     15  C   UNL     1       4.794   2.422  -1.504  0.00  0.00    +0.000 A 
ATOM     16  C   UNL     1       4.029   1.260  -1.325  0.00  0.00    +0.000 A 
BRANCH  11  18
ATOM     17  C   UNL     1       1.236   0.019   0.683  0.00  0.00    +0.000 C 
ATOM     18  O   UNL     1       2.247   0.087  -0.314  0.00  0.00    +0.000 OA
ENDBRANCH  11  18
ENDBRANCH   1  16
TORSDOF 2
