REMARK  Name = claudia.xyz
REMARK  2 active torsions:
REMARK  status: ('A' for Active; 'I' for Inactive)
REMARK    1  A    between atoms: C_1  and  C_2
REMARK    2  A    between atoms: C_5  and  C_6
REMARK                            x       y       z     vdW  Elec       q    Type
REMARK                         _______ _______ _______ _____ _____    ______ ____
ROOT
ATOM      1  C   UNL     1      -3.258  -0.051  -0.165  0.00  0.00    +0.000 C 
ATOM      2  C   UNL     1      -3.981   0.046  -1.288  0.00  0.00    +0.000 C 
ATOM      3  S   UNL     1      -3.417   0.216  -2.911  0.00  0.00    +0.000 S 
ATOM      4  C   UNL     1      -5.040   0.224  -3.562  0.00  0.00    +0.000 C 
ATOM      5  S   UNL     1      -5.462   0.356  -5.157  0.00  0.00    +0.000 S 
ATOM      6  N   UNL     1      -5.942   0.103  -2.550  0.00  0.00    +0.000 N 
ATOM      7  C   UNL     1      -5.467  -0.002  -1.273  0.00  0.00    +0.000 C 
ATOM      8  O   UNL     1      -6.166  -0.118  -0.279  0.00  0.00    +0.000 OA
ATOM      9  H   UNL     1      -6.909   0.092  -2.733  0.00  0.00    +0.000 HD
ENDROOT
BRANCH   1  14
ATOM     10  C   UNL     1       2.511   0.002   0.098  0.00  0.00    +0.000 C 
ATOM     11  C   UNL     1       1.011  -0.004   0.060  0.00  0.00    +0.000 A 
ATOM     12  C   UNL     1       0.305   1.180  -0.182  0.00  0.00    +0.000 A 
ATOM     13  C   UNL     1      -1.091   1.171  -0.253  0.00  0.00    +0.000 A 
ATOM     14  C   UNL     1      -1.796  -0.026  -0.096  0.00  0.00    +0.000 A 
ATOM     15  C   UNL     1      -1.093  -1.212   0.136  0.00  0.00    +0.000 A 
ATOM     16  C   UNL     1       0.302  -1.202   0.206  0.00  0.00    +0.000 A 
ENDBRANCH   1  14
TORSDOF 1
