REMARK  Name = claudia.xyz
REMARK  3 active torsions:
REMARK  status: ('A' for Active; 'I' for Inactive)
REMARK    1  A    between atoms: C_1  and  O_2
REMARK    2  A    between atoms: O_2  and  C_3
REMARK    3  A    between atoms: C_6  and  C_7
REMARK                            x       y       z     vdW  Elec       q    Type
REMARK                         _______ _______ _______ _____ _____    ______ ____
ROOT
ATOM      1  C   UNL     1       5.177   2.238  -4.561  0.00  0.00    +0.000 C 
ATOM      2  C   UNL     1       6.192   3.103  -4.494  0.00  0.00    +0.000 C 
ATOM      3  N   UNL     1       6.776   3.630  -3.375  0.00  0.00    +0.000 N 
ATOM      4  C   UNL     1       7.795   4.485  -3.750  0.00  0.00    +0.000 C 
ATOM      5  S   UNL     1       8.764   5.337  -2.724  0.00  0.00    +0.000 S 
ATOM      6  N   UNL     1       7.860   4.503  -5.119  0.00  0.00    +0.000 N 
ATOM      7  C   UNL     1       6.912   3.682  -5.672  0.00  0.00    +0.000 C 
ATOM      8  O   UNL     1       6.698   3.469  -6.848  0.00  0.00    +0.000 OA
ATOM      9  H   UNL     1       6.511   3.432  -2.448  0.00  0.00    +0.000 HD
ATOM     10  H   UNL     1       8.505   5.037  -5.638  0.00  0.00    +0.000 HD
ENDROOT
BRANCH   1  14
ATOM     11  C   UNL     1       3.211   0.677  -1.107  0.00  0.00    +0.000 A 
ATOM     12  C   UNL     1       2.779   1.874  -1.679  0.00  0.00    +0.000 A 
ATOM     13  C   UNL     1       3.423   2.383  -2.814  0.00  0.00    +0.000 A 
ATOM     14  C   UNL     1       4.501   1.699  -3.383  0.00  0.00    +0.000 A 
ATOM     15  C   UNL     1       4.939   0.505  -2.806  0.00  0.00    +0.000 A 
ATOM     16  C   UNL     1       4.295   0.001  -1.673  0.00  0.00    +0.000 A 
BRANCH  11  18
ATOM     17  C   UNL     1       1.509   0.669   0.552  0.00  0.00    +0.000 C 
ATOM     18  O   UNL     1       2.672   0.071  -0.006  0.00  0.00    +0.000 OA
ENDBRANCH  11  18
ENDBRANCH   1  14
TORSDOF 2
