REMARK  Name = claudia.xyz
REMARK  2 active torsions:
REMARK  status: ('A' for Active; 'I' for Inactive)
REMARK    1  A    between atoms: C_7  and  C_8
REMARK    2  A    between atoms: C_11  and  N_12
REMARK                            x       y       z     vdW  Elec       q    Type
REMARK                         _______ _______ _______ _____ _____    ______ ____
ROOT
ATOM      1  O   UNL     1      -1.872  -0.714  -2.298  0.00  0.00    +0.000 OA
ATOM      2  C   UNL     1      -0.860  -0.405  -1.693  0.00  0.00    +0.000 C 
ATOM      3  N   UNL     1       0.062  -1.267  -1.193  0.00  0.00    +0.000 N 
ATOM      4  C   UNL     1       1.139  -0.747  -0.540  0.00  0.00    +0.000 C 
ATOM      5  O   UNL     1       2.039  -1.406  -0.044  0.00  0.00    +0.000 OA
ATOM      6  C   UNL     1       1.050   0.736  -0.525  0.00  0.00    +0.000 C 
ATOM      7  C   UNL     1       1.985   1.499   0.055  0.00  0.00    +0.000 C 
ATOM      8  S   UNL     1      -0.383   1.243  -1.339  0.00  0.00    +0.000 S 
ATOM      9  H   UNL     1      -0.045  -2.240  -1.299  0.00  0.00    +0.000 HD
ENDROOT
BRANCH   7  10
ATOM     10  C   UNL     1       1.957   2.961   0.105  0.00  0.00    +0.000 A 
ATOM     11  C   UNL     1       1.307   3.616   1.158  0.00  0.00    +0.000 A 
ATOM     12  C   UNL     1       1.267   5.013   1.202  0.00  0.00    +0.000 A 
ATOM     13  C   UNL     1       1.883   5.754   0.185  0.00  0.00    +0.000 A 
ATOM     14  C   UNL     1       2.537   5.106  -0.871  0.00  0.00    +0.000 A 
ATOM     15  C   UNL     1       2.571   3.709  -0.907  0.00  0.00    +0.000 A 
BRANCH  13  16
ATOM     16  N   UNL     1       1.842   7.221   0.226  0.00  0.00    +0.000 N 
ATOM     17  O   UNL     1       1.253   7.755   1.177  0.00  0.00    +0.000 OA
ATOM     18  O   UNL     1       2.402   7.839  -0.691  0.00  0.00    +0.000 OA
ENDBRANCH  13  16
ENDBRANCH   7  10
TORSDOF 2
