REMARK  Name = claudia.xyz
REMARK  2 active torsions:
REMARK  status: ('A' for Active; 'I' for Inactive)
REMARK    1  A    between atoms: C_8  and  C_9
REMARK    2  A    between atoms: C_12  and  N_13
REMARK                            x       y       z     vdW  Elec       q    Type
REMARK                         _______ _______ _______ _____ _____    ______ ____
ROOT
ATOM      1  O   UNL     1      -2.199  -1.404   0.236  0.00  0.00    +0.000 OA
ATOM      2  C   UNL     1      -1.388  -0.627   0.699  0.00  0.00    +0.000 C 
ATOM      3  N   UNL     1      -0.267  -0.909   1.435  0.00  0.00    +0.000 N 
ATOM      4  C   UNL     1       0.401   0.236   1.781  0.00  0.00    +0.000 C 
ATOM      5  S   UNL     1       1.791   0.320   2.662  0.00  0.00    +0.000 S 
ATOM      6  N   UNL     1      -0.292   1.315   1.264  0.00  0.00    +0.000 N 
ATOM      7  C   UNL     1      -1.395   0.866   0.591  0.00  0.00    +0.000 C 
ATOM      8  C   UNL     1      -2.319   1.586  -0.049  0.00  0.00    +0.000 C 
ATOM      9  H   UNL     1       0.022  -1.817   1.682  0.00  0.00    +0.000 HD
ATOM     10  H   UNL     1      -0.032   2.260   1.364  0.00  0.00    +0.000 HD
ENDROOT
BRANCH   8  11
ATOM     11  C   UNL     1      -2.292   3.045  -0.133  0.00  0.00    +0.000 A 
ATOM     12  C   UNL     1      -1.623   3.675  -1.190  0.00  0.00    +0.000 A 
ATOM     13  C   UNL     1      -1.587   5.070  -1.271  0.00  0.00    +0.000 A 
ATOM     14  C   UNL     1      -2.224   5.835  -0.285  0.00  0.00    +0.000 A 
ATOM     15  C   UNL     1      -2.892   5.213   0.778  0.00  0.00    +0.000 A 
ATOM     16  C   UNL     1      -2.923   3.817   0.850  0.00  0.00    +0.000 A 
BRANCH  14  17
ATOM     17  N   UNL     1      -2.192   7.301  -0.367  0.00  0.00    +0.000 N 
ATOM     18  O   UNL     1      -1.587   7.811  -1.320  0.00  0.00    +0.000 OA
ATOM     19  O   UNL     1      -2.769   7.940   0.524  0.00  0.00    +0.000 OA
ENDBRANCH  14  17
ENDBRANCH   8  11
TORSDOF 2
