REMARK  Name = claudia.xyz
REMARK  2 active torsions:
REMARK  status: ('A' for Active; 'I' for Inactive)
REMARK    1  A    between atoms: C_8  and  C_9
REMARK    2  A    between atoms: C_13  and  O_14
REMARK                            x       y       z     vdW  Elec       q    Type
REMARK                         _______ _______ _______ _____ _____    ______ ____
ROOT
ATOM      1  O   UNL     1      -2.208  -1.636   0.017  0.00  0.00    +0.000 OA
ATOM      2  C   UNL     1      -1.404  -0.871   0.523  0.00  0.00    +0.000 C 
ATOM      3  N   UNL     1      -0.247  -1.254   1.141  0.00  0.00    +0.000 N 
ATOM      4  C   UNL     1       0.559  -0.283   1.652  0.00  0.00    +0.000 C 
ATOM      5  S   UNL     1       1.992  -0.591   2.422  0.00  0.00    +0.000 S 
ATOM      6  S   UNL     1      -0.151   1.289   1.363  0.00  0.00    +0.000 S 
ATOM      7  C   UNL     1      -1.522   0.611   0.562  0.00  0.00    +0.000 C 
ATOM      8  C   UNL     1      -2.571   1.253   0.032  0.00  0.00    +0.000 C 
ATOM      9  H   UNL     1      -0.003  -2.205   1.214  0.00  0.00    +0.000 HD
ENDROOT
BRANCH   8  10
ATOM     10  C   UNL     1      -2.753   2.705   0.039  0.00  0.00    +0.000 A 
ATOM     11  C   UNL     1      -2.247   3.484  -1.008  0.00  0.00    +0.000 A 
ATOM     12  C   UNL     1      -2.413   4.871  -0.996  0.00  0.00    +0.000 A 
ATOM     13  C   UNL     1      -3.084   5.486   0.062  0.00  0.00    +0.000 A 
ATOM     14  C   UNL     1      -3.585   4.706   1.099  0.00  0.00    +0.000 A 
ATOM     15  C   UNL     1      -3.425   3.324   1.097  0.00  0.00    +0.000 A 
BRANCH  14  16
ATOM     16  O   UNL     1      -4.247   5.266   2.153  0.00  0.00    +0.000 OA
ATOM     17  H   UNL     1      -4.372   6.194   2.187  0.00  0.00    +0.000 HD
ENDBRANCH  14  16
ENDBRANCH   8  10
TORSDOF 2
