REMARK  Name = claudia.xyz
REMARK  2 active torsions:
REMARK  status: ('A' for Active; 'I' for Inactive)
REMARK    1  A    between atoms: C_6  and  C_7
REMARK    2  A    between atoms: C_7  and  C_8
REMARK                            x       y       z     vdW  Elec       q    Type
REMARK                         _______ _______ _______ _____ _____    ______ ____
ROOT
ATOM      1  O   UNL     1       2.071   0.710  -0.384  0.00  0.00    +0.000 OA
ATOM      2  C   UNL     1       0.962   0.240  -0.210  0.00  0.00    +0.000 C 
ATOM      3  N   UNL     1      -0.193   0.935  -0.092  0.00  0.00    +0.000 N 
ATOM      4  C   UNL     1      -1.253   0.095   0.052  0.00  0.00    +0.000 C 
ATOM      5  O   UNL     1      -2.417   0.444   0.173  0.00  0.00    +0.000 OA
ATOM      6  C   UNL     1      -0.743  -1.346   0.031  0.00  0.00    +0.000 C 
ATOM      7  N   UNL     1       0.675  -1.098  -0.109  0.00  0.00    +0.000 N 
ATOM      8  H   UNL     1      -0.258   1.918  -0.109  0.00  0.00    +0.000 HD
ATOM      9  H   UNL     1       1.356  -1.808  -0.130  0.00  0.00    +0.000 HD
ENDROOT
BRANCH   6  10
ATOM     10  C   UNL     1      -1.117  -2.074   1.318  0.00  0.00    +0.000 C 
BRANCH  10  11
ATOM     11  C   UNL     1      -0.646  -3.509   1.317  0.00  0.00    +0.000 A 
ATOM     12  C   UNL     1       0.566  -3.860   1.928  0.00  0.00    +0.000 A 
ATOM     13  C   UNL     1       1.012  -5.182   1.903  0.00  0.00    +0.000 A 
ATOM     14  C   UNL     1       0.253  -6.163   1.268  0.00  0.00    +0.000 A 
ATOM     15  C   UNL     1      -0.953  -5.824   0.658  0.00  0.00    +0.000 A 
ATOM     16  C   UNL     1      -1.401  -4.503   0.680  0.00  0.00    +0.000 A 
ENDBRANCH  10  11
ENDBRANCH   6  10
TORSDOF 2
