REMARK  Name = claudia.xyz
REMARK  1 active torsions:
REMARK  status: ('A' for Active; 'I' for Inactive)
REMARK    1  A    between atoms: C_8  and  C_9
REMARK                            x       y       z     vdW  Elec       q    Type
REMARK                         _______ _______ _______ _____ _____    ______ ____
ROOT
ATOM      1  O   UNL     1      -2.221  -1.554  -0.431  0.00  0.00    +0.000 OA
ATOM      2  C   UNL     1      -1.299  -0.813  -0.134  0.00  0.00    +0.000 C 
ATOM      3  N   UNL     1      -0.024  -1.228   0.127  0.00  0.00    +0.000 N 
ATOM      4  C   UNL     1       0.904  -0.286   0.447  0.00  0.00    +0.000 C 
ATOM      5  S   UNL     1       2.485  -0.631   0.789  0.00  0.00    +0.000 S 
ATOM      6  S   UNL     1       0.162   1.297   0.439  0.00  0.00    +0.000 S 
ATOM      7  C   UNL     1      -1.386   0.667   0.004  0.00  0.00    +0.000 C 
ATOM      8  C   UNL     1      -2.537   1.307  -0.240  0.00  0.00    +0.000 C 
ATOM      9  H   UNL     1       0.218  -2.182   0.084  0.00  0.00    +0.000 HD
ENDROOT
BRANCH   8  10
ATOM     10  C   UNL     1      -2.733   2.717  -0.157  0.00  0.00    +0.000 A 
ATOM     11  C   UNL     1      -2.281   3.651   0.764  0.00  0.00    +0.000 A 
ATOM     12  C   UNL     1      -2.723   4.980   0.482  0.00  0.00    +0.000 A 
ATOM     13  C   UNL     1      -3.514   5.008  -0.635  0.00  0.00    +0.000 A 
ATOM     14 BR   UNL     1      -4.287   6.572  -1.316  0.00  0.00    +0.000 Br
ATOM     15  S   UNL     1      -3.738   3.486  -1.334  0.00  0.00    +0.000 S 
ENDBRANCH   8  10
TORSDOF 1
