REMARK  Name = claudia.xyz
REMARK  4 active torsions:
REMARK  status: ('A' for Active; 'I' for Inactive)
REMARK    1  A    between atoms: C_1  and  O_2
REMARK    2  A    between atoms: O_2  and  C_3
REMARK    3  A    between atoms: C_6  and  C_7
REMARK    4  A    between atoms: C_8  and  C_9
REMARK                            x       y       z     vdW  Elec       q    Type
REMARK                         _______ _______ _______ _____ _____    ______ ____
ROOT
ATOM      1  C   UNL     1       5.507  -2.474   3.870  0.00  0.00    +0.000 C 
ATOM      2  C   UNL     1       5.193  -3.617   4.500  0.00  0.00    +0.000 C 
ENDROOT
BRANCH   2   3
ATOM      3  C   UNL     1       6.037  -4.195   5.525  0.00  0.00    +0.000 C 
ATOM      4  C   UNL     1       5.795  -5.330   6.186  0.00  0.00    +0.000 C 
ATOM      5  N   UNL     1       4.735  -6.185   6.059  0.00  0.00    +0.000 N 
ATOM      6  C   UNL     1       4.886  -7.238   6.942  0.00  0.00    +0.000 C 
ATOM      7  S   UNL     1       3.838  -8.498   7.121  0.00  0.00    +0.000 S 
ATOM      8  N   UNL     1       6.050  -7.053   7.639  0.00  0.00    +0.000 N 
ATOM      9  C   UNL     1       6.686  -5.905   7.247  0.00  0.00    +0.000 C 
ATOM     10  O   UNL     1       7.734  -5.449   7.660  0.00  0.00    +0.000 OA
ATOM     11  H   UNL     1       3.982  -6.070   5.435  0.00  0.00    +0.000 HD
ATOM     12  H   UNL     1       6.387  -7.666   8.332  0.00  0.00    +0.000 HD
ENDBRANCH   2   3
BRANCH   1  16
ATOM     13  C   UNL     1       3.150  -0.621   0.804  0.00  0.00    +0.000 A 
ATOM     14  C   UNL     1       2.521  -1.191   1.909  0.00  0.00    +0.000 A 
ATOM     15  C   UNL     1       3.281  -1.805   2.914  0.00  0.00    +0.000 A 
ATOM     16  C   UNL     1       4.677  -1.867   2.821  0.00  0.00    +0.000 A 
ATOM     17  C   UNL     1       5.302  -1.277   1.718  0.00  0.00    +0.000 A 
ATOM     18  C   UNL     1       4.542  -0.665   0.716  0.00  0.00    +0.000 A 
BRANCH  13  20
ATOM     19  C   UNL     1       1.111   0.074  -0.201  0.00  0.00    +0.000 C 
ATOM     20  O   UNL     1       2.531   0.006  -0.241  0.00  0.00    +0.000 OA
ENDBRANCH  13  20
ENDBRANCH   1  16
TORSDOF 3
