REMARK  Name = claudia.xyz
REMARK  4 active torsions:
REMARK  status: ('A' for Active; 'I' for Inactive)
REMARK    1  A    between atoms: C_1  and  C_2
REMARK    2  A    between atoms: C_10  and  C_11
REMARK    3  A    between atoms: C_11  and  C_12
REMARK    4  A    between atoms: C_15  and  O_16
REMARK                            x       y       z     vdW  Elec       q    Type
REMARK                         _______ _______ _______ _____ _____    ______ ____
ROOT
ATOM      1  C   UNL     1       0.941  -1.029   0.373  0.00  0.00    +0.000 C 
ATOM      2  C   UNL     1       2.221  -0.269   0.124  0.00  0.00    +0.000 C 
ATOM      3  O   UNL     1       2.177   0.792  -0.496  0.00  0.00    +0.000 OA
ATOM      4  N   UNL     1       3.400  -0.875   0.549  0.00  0.00    +0.000 N 
ATOM      5  C   UNL     1       4.600  -0.210   0.880  0.00  0.00    +0.000 C 
ATOM      6  S   UNL     1       5.004   1.397   0.812  0.00  0.00    +0.000 S 
ATOM      7  N   UNL     1       5.481  -1.126   1.367  0.00  0.00    +0.000 N 
ATOM      8  C   UNL     1       4.929  -2.361   1.435  0.00  0.00    +0.000 C 
ATOM      9  O   UNL     1       5.491  -3.341   1.897  0.00  0.00    +0.000 OA
ATOM     10  C   UNL     1       3.531  -2.315   0.829  0.00  0.00    +0.000 C 
ATOM     11  H   UNL     1       6.405  -0.917   1.635  0.00  0.00    +0.000 HD
ENDROOT
BRANCH  10  12
ATOM     12  C   UNL     1       3.484  -3.166  -0.449  0.00  0.00    +0.000 C 
BRANCH  12  13
ATOM     13  C   UNL     1       3.024  -4.583  -0.187  0.00  0.00    +0.000 A 
ATOM     14  C   UNL     1       1.665  -4.922  -0.280  0.00  0.00    +0.000 A 
ATOM     15  C   UNL     1       1.238  -6.227  -0.021  0.00  0.00    +0.000 A 
ATOM     16  C   UNL     1       2.170  -7.196   0.332  0.00  0.00    +0.000 A 
ATOM     17  C   UNL     1       3.518  -6.880   0.429  0.00  0.00    +0.000 A 
ATOM     18  C   UNL     1       3.946  -5.577   0.170  0.00  0.00    +0.000 A 
BRANCH  16  19
ATOM     19  O   UNL     1       1.797  -8.481   0.593  0.00  0.00    +0.000 OA
ATOM     20  H   UNL     1       2.443  -9.117   0.829  0.00  0.00    +0.000 HD
ENDBRANCH  16  19
ENDBRANCH  12  13
ENDBRANCH  10  12
TORSDOF 3
