REMARK  Name = claudia.xyz
REMARK  5 active torsions:
REMARK  status: ('A' for Active; 'I' for Inactive)
REMARK    1  A    between atoms: N_1  and  C_2
REMARK    2  A    between atoms: C_2  and  C_3
REMARK    3  A    between atoms: C_3  and  C_4
REMARK    4  A    between atoms: C_4  and  C_5
REMARK    5  A    between atoms: C_5  and  C_6
REMARK                            x       y       z     vdW  Elec       q    Type
REMARK                         _______ _______ _______ _____ _____    ______ ____
ROOT
ATOM      1  C   UNL     1       6.372   1.294  -2.632  0.00  0.00    +0.000 C 
ATOM      2  N   UNL     1       5.136   0.643  -3.012  0.00  0.00    +0.000 N 
ATOM      3  C   UNL     1       5.338  -0.319  -3.971  0.00  0.00    +0.000 C 
ATOM      4  S   UNL     1       4.152  -1.229  -4.662  0.00  0.00    +0.000 S 
ATOM      5  N   UNL     1       6.659  -0.388  -4.254  0.00  0.00    +0.000 N 
ATOM      6  C   UNL     1       7.360   0.519  -3.514  0.00  0.00    +0.000 C 
ATOM      7  O   UNL     1       8.570   0.678  -3.558  0.00  0.00    +0.000 OA
ATOM      8  H   UNL     1       4.257   0.862  -2.628  0.00  0.00    +0.000 HD
ATOM      9  H   UNL     1       7.060  -1.009  -4.906  0.00  0.00    +0.000 HD
ENDROOT
BRANCH   1  10
ATOM     10  C   UNL     1       6.703   1.138  -1.153  0.00  0.00    +0.000 C 
BRANCH  10  11
ATOM     11  C   UNL     1       5.746   1.936  -0.263  0.00  0.00    +0.000 C 
BRANCH  11  12
ATOM     12  C   UNL     1       6.111   1.788   1.217  0.00  0.00    +0.000 C 
BRANCH  12  13
ATOM     13  C   UNL     1       5.209   2.612   2.139  0.00  0.00    +0.000 C 
BRANCH  13  14
ATOM     14  N   UNL     1       3.821   2.171   2.072  0.00  0.00    +0.000 N 
ATOM     15  H   UNL     1       3.253   2.742   2.698  0.00  0.00    +0.000 HD
ATOM     16  H   UNL     1       3.761   1.193   2.356  0.00  0.00    +0.000 HD
ATOM     17  H   UNL     1       3.478   2.270   1.117  0.00  0.00    +0.000 HD
ENDBRANCH  13  14
ENDBRANCH  12  13
ENDBRANCH  11  12
ENDBRANCH  10  11
ENDBRANCH   1  10
TORSDOF 5
