REMARK  Name = claudia.xyz
REMARK  4 active torsions:
REMARK  status: ('A' for Active; 'I' for Inactive)
REMARK    1  A    between atoms: C_6  and  C_7
REMARK    2  A    between atoms: C_7  and  C_8
REMARK    3  A    between atoms: C_11  and  O_12
REMARK    4  A    between atoms: C_13  and  O_14
REMARK                            x       y       z     vdW  Elec       q    Type
REMARK                         _______ _______ _______ _____ _____    ______ ____
ROOT
ATOM      1  C   UNL     1      -0.865  -2.066   1.466  0.00  0.00    +0.000 C 
ENDROOT
BRANCH   1   7
ATOM      2  O   UNL     1       1.975   0.649  -0.853  0.00  0.00    +0.000 OA
ATOM      3  C   UNL     1       0.915   0.197  -0.461  0.00  0.00    +0.000 C 
ATOM      4  N   UNL     1      -0.186   0.910  -0.131  0.00  0.00    +0.000 N 
ATOM      5  C   UNL     1      -1.211   0.087   0.217  0.00  0.00    +0.000 C 
ATOM      6  O   UNL     1      -2.329   0.454   0.547  0.00  0.00    +0.000 OA
ATOM      7  C   UNL     1      -0.733  -1.362   0.120  0.00  0.00    +0.000 C 
ATOM      8  N   UNL     1       0.634  -1.137  -0.293  0.00  0.00    +0.000 N 
ATOM      9  H   UNL     1      -0.238   1.893  -0.142  0.00  0.00    +0.000 HD
ATOM     10  H   UNL     1       1.289  -1.858  -0.438  0.00  0.00    +0.000 HD
ENDBRANCH   1   7
BRANCH   1  11
ATOM     11  C   UNL     1      -0.535  -3.538   1.374  0.00  0.00    +0.000 A 
ATOM     12  C   UNL     1      -1.545  -4.477   1.101  0.00  0.00    +0.000 A 
ATOM     13  C   UNL     1      -1.245  -5.840   0.996  0.00  0.00    +0.000 A 
ATOM     14  C   UNL     1       0.069  -6.258   1.156  0.00  0.00    +0.000 A 
ATOM     15  C   UNL     1       1.074  -5.333   1.420  0.00  0.00    +0.000 A 
ATOM     16  C   UNL     1       0.786  -3.980   1.534  0.00  0.00    +0.000 A 
BRANCH  14  17
ATOM     17  O   UNL     1       0.426  -7.575   1.062  0.00  0.00    +0.000 OA
ATOM     18  H   UNL     1       1.322  -7.827   1.175  0.00  0.00    +0.000 HD
ENDBRANCH  14  17
BRANCH  15  19
ATOM     19  O   UNL     1       2.366  -5.751   1.569  0.00  0.00    +0.000 OA
ATOM     20  H   UNL     1       3.042  -5.128   1.747  0.00  0.00    +0.000 HD
ENDBRANCH  15  19
ENDBRANCH   1  11
TORSDOF 4
