REMARK  Name = claudia.xyz
REMARK  0 active torsions:
REMARK  status: ('A' for Active; 'I' for Inactive)
REMARK                            x       y       z     vdW  Elec       q    Type
REMARK                         _______ _______ _______ _____ _____    ______ ____
ROOT
ATOM      1  O   UNL     1      -2.300   0.509   0.007  0.00  0.00    +0.000 OA
ATOM      2  C   UNL     1      -1.148   0.105   0.009  0.00  0.00    +0.000 C 
ATOM      3  C   UNL     1      -0.713  -1.352  -0.018  0.00  0.00    +0.000 C 
ATOM      4  N   UNL     1       0.716  -1.194  -0.004  0.00  0.00    +0.000 N 
ATOM      5  C   UNL     1       1.085   0.130   0.025  0.00  0.00    +0.000 C 
ATOM      6  O   UNL     1       2.232   0.537   0.039  0.00  0.00    +0.000 OA
ATOM      7  N   UNL     1      -0.036   0.887   0.034  0.00  0.00    +0.000 N 
ATOM      8  H   UNL     1       1.353  -1.944  -0.013  0.00  0.00    +0.000 HD
ATOM      9  H   UNL     1      -0.046   1.871   0.056  0.00  0.00    +0.000 HD
ENDROOT
TORSDOF 0
