REMARK  Name = claudia.xyz
REMARK  4 active torsions:
REMARK  status: ('A' for Active; 'I' for Inactive)
REMARK    1  A    between atoms: C_1  and  O_2
REMARK    2  A    between atoms: O_2  and  C_3
REMARK    3  A    between atoms: C_6  and  C_7
REMARK    4  A    between atoms: C_8  and  C_9
REMARK                            x       y       z     vdW  Elec       q    Type
REMARK                         _______ _______ _______ _____ _____    ______ ____
ROOT
ATOM      1  C   UNL     1       5.481  -4.081   2.278  0.00  0.00    +0.000 C 
ATOM      2  C   UNL     1       5.596  -5.342   1.831  0.00  0.00    +0.000 C 
ENDROOT
BRANCH   2   3
ATOM      3  C   UNL     1       6.421  -6.331   2.497  0.00  0.00    +0.000 C 
ATOM      4  C   UNL     1       6.587  -7.609   2.129  0.00  0.00    +0.000 C 
ATOM      5  S   UNL     1       5.882  -8.440   0.790  0.00  0.00    +0.000 S 
ATOM      6  C   UNL     1       6.684  -9.941   1.191  0.00  0.00    +0.000 C 
ATOM      7  S   UNL     1       6.561 -11.373   0.371  0.00  0.00    +0.000 S 
ATOM      8  N   UNL     1       7.448  -9.772   2.304  0.00  0.00    +0.000 N 
ATOM      9  C   UNL     1       7.464  -8.538   2.892  0.00  0.00    +0.000 C 
ATOM     10  O   UNL     1       8.103  -8.254   3.892  0.00  0.00    +0.000 OA
ATOM     11  H   UNL     1       7.975 -10.516   2.675  0.00  0.00    +0.000 HD
ENDBRANCH   2   3
BRANCH   1  15
ATOM     12  C   UNL     1       3.112  -0.998   0.464  0.00  0.00    +0.000 A 
ATOM     13  C   UNL     1       2.650  -2.313   0.466  0.00  0.00    +0.000 A 
ATOM     14  C   UNL     1       3.418  -3.330   1.049  0.00  0.00    +0.000 A 
ATOM     15  C   UNL     1       4.662  -3.048   1.628  0.00  0.00    +0.000 A 
ATOM     16  C   UNL     1       5.111  -1.724   1.637  0.00  0.00    +0.000 A 
ATOM     17  C   UNL     1       4.343  -0.710   1.055  0.00  0.00    +0.000 A 
BRANCH  12  19
ATOM     18  C   UNL     1       1.210  -0.161  -0.689  0.00  0.00    +0.000 C 
ATOM     19  O   UNL     1       2.465   0.083  -0.066  0.00  0.00    +0.000 OA
ENDBRANCH  12  19
ENDBRANCH   1  15
TORSDOF 3
