REMARK  Name = claudia.xyz
REMARK  2 active torsions:
REMARK  status: ('A' for Active; 'I' for Inactive)
REMARK    1  A    between atoms: C_1  and  C_2
REMARK    2  A    between atoms: C_5  and  C_6
REMARK                            x       y       z     vdW  Elec       q    Type
REMARK                         _______ _______ _______ _____ _____    ______ ____
ROOT
ATOM      1  C   UNL     1      -3.284   0.008  -0.087  0.00  0.00    +0.000 C 
ATOM      2  C   UNL     1      -3.967   0.006  -1.234  0.00  0.00    +0.000 C 
ATOM      3  N   UNL     1      -3.470   0.010  -2.505  0.00  0.00    +0.000 N 
ATOM      4  C   UNL     1      -4.510   0.004  -3.416  0.00  0.00    +0.000 C 
ATOM      5  O   UNL     1      -4.402   0.005  -4.629  0.00  0.00    +0.000 OA
ATOM      6  N   UNL     1      -5.684  -0.004  -2.707  0.00  0.00    +0.000 N 
ATOM      7  C   UNL     1      -5.456  -0.003  -1.359  0.00  0.00    +0.000 C 
ATOM      8  O   UNL     1      -6.272  -0.010  -0.460  0.00  0.00    +0.000 OA
ATOM      9  H   UNL     1      -2.513   0.016  -2.739  0.00  0.00    +0.000 HD
ATOM     10  H   UNL     1      -6.579  -0.009  -3.117  0.00  0.00    +0.000 HD
ENDROOT
BRANCH   1  15
ATOM     11  C   UNL     1       2.486  -0.006   0.013  0.00  0.00    +0.000 C 
ATOM     12  C   UNL     1       0.986   0.009   0.001  0.00  0.00    +0.000 A 
ATOM     13  C   UNL     1       0.277   1.216  -0.001  0.00  0.00    +0.000 A 
ATOM     14  C   UNL     1      -1.120   1.216  -0.018  0.00  0.00    +0.000 A 
ATOM     15  C   UNL     1      -1.823   0.009  -0.031  0.00  0.00    +0.000 A 
ATOM     16  C   UNL     1      -1.120  -1.199  -0.027  0.00  0.00    +0.000 A 
ATOM     17  C   UNL     1       0.276  -1.198  -0.011  0.00  0.00    +0.000 A 
ENDBRANCH   1  15
TORSDOF 1
