REMARK  Name = claudia.xyz
REMARK  2 active torsions:
REMARK  status: ('A' for Active; 'I' for Inactive)
REMARK    1  A    between atoms: C_1  and  C_2
REMARK    2  A    between atoms: C_2  and  C_10
REMARK                            x       y       z     vdW  Elec       q    Type
REMARK                         _______ _______ _______ _____ _____    ______ ____
ROOT
ATOM      1  C   UNL     1       1.361  -0.457   0.707  0.00  0.00    +0.000 C 
ATOM      2  C   UNL     1       2.454   0.089  -0.174  0.00  0.00    +0.000 C 
ATOM      3  C   UNL     1       2.739   1.400  -0.295  0.00  0.00    +0.000 C 
ATOM      4  S   UNL     1       3.983   2.096  -1.292  0.00  0.00    +0.000 S 
ATOM      5  C   UNL     1       3.595   3.727  -0.810  0.00  0.00    +0.000 C 
ATOM      6  S   UNL     1       4.344   5.112  -1.320  0.00  0.00    +0.000 S 
ATOM      7  N   UNL     1       2.560   3.710   0.070  0.00  0.00    +0.000 N 
ATOM      8  C   UNL     1       2.019   2.502   0.413  0.00  0.00    +0.000 C 
ATOM      9  O   UNL     1       1.081   2.378   1.184  0.00  0.00    +0.000 OA
ATOM     10  H   UNL     1       2.208   4.547   0.451  0.00  0.00    +0.000 HD
ENDROOT
BRANCH   2  11
ATOM     11  C   UNL     1       3.202  -0.943  -0.916  0.00  0.00    +0.000 A 
ATOM     12  C   UNL     1       2.736  -1.394  -2.153  0.00  0.00    +0.000 A 
ATOM     13  C   UNL     1       3.445  -2.370  -2.857  0.00  0.00    +0.000 A 
ATOM     14  C   UNL     1       4.631  -2.911  -2.336  0.00  0.00    +0.000 A 
ATOM     15  C   UNL     1       5.354  -3.892  -3.033  0.00  0.00    +0.000 A 
ATOM     16  C   UNL     1       6.532  -4.421  -2.502  0.00  0.00    +0.000 A 
ATOM     17  C   UNL     1       7.001  -3.976  -1.270  0.00  0.00    +0.000 A 
ATOM     18  C   UNL     1       6.294  -3.001  -0.565  0.00  0.00    +0.000 A 
ATOM     19  C   UNL     1       5.107  -2.459  -1.084  0.00  0.00    +0.000 A 
ATOM     20  C   UNL     1       4.384  -1.477  -0.386  0.00  0.00    +0.000 A 
ENDBRANCH   2  11
TORSDOF 1
