REMARK  Name = claudia.xyz
REMARK  1 active torsions:
REMARK  status: ('A' for Active; 'I' for Inactive)
REMARK    1  A    between atoms: C_7  and  C_8
REMARK                            x       y       z     vdW  Elec       q    Type
REMARK                         _______ _______ _______ _____ _____    ______ ____
ROOT
ATOM      1  C   UNL     1       1.997   2.964   0.088  0.00  0.00    +0.000 A 
ATOM      2  C   UNL     1       1.334   3.639   1.114  0.00  0.00    +0.000 A 
ATOM      3  C   UNL     1       1.316   5.035   1.139  0.00  0.00    +0.000 A 
ATOM      4  C   UNL     1       1.961   5.779   0.138  0.00  0.00    +0.000 A 
ATOM      5  C   UNL     1       1.952   7.183   0.150  0.00  0.00    +0.000 A 
ATOM      6  C   UNL     1       2.597   7.909  -0.853  0.00  0.00    +0.000 A 
ATOM      7  C   UNL     1       3.259   7.241  -1.878  0.00  0.00    +0.000 A 
ATOM      8  C   UNL     1       3.278   5.846  -1.904  0.00  0.00    +0.000 A 
ATOM      9  C   UNL     1       2.634   5.100  -0.903  0.00  0.00    +0.000 A 
ATOM     10  C   UNL     1       2.644   3.695  -0.916  0.00  0.00    +0.000 A 
ENDROOT
BRANCH   1  17
ATOM     11  O   UNL     1      -1.836  -0.713  -2.312  0.00  0.00    +0.000 OA
ATOM     12  C   UNL     1      -0.829  -0.403  -1.700  0.00  0.00    +0.000 C 
ATOM     13  N   UNL     1       0.080  -1.265  -1.178  0.00  0.00    +0.000 N 
ATOM     14  C   UNL     1       1.153  -0.745  -0.519  0.00  0.00    +0.000 C 
ATOM     15  O   UNL     1       2.040  -1.406  -0.004  0.00  0.00    +0.000 OA
ATOM     16  C   UNL     1       1.076   0.739  -0.525  0.00  0.00    +0.000 C 
ATOM     17  C   UNL     1       2.011   1.501   0.056  0.00  0.00    +0.000 C 
ATOM     18  S   UNL     1      -0.343   1.246  -1.364  0.00  0.00    +0.000 S 
ATOM     19  H   UNL     1      -0.033  -2.238  -1.272  0.00  0.00    +0.000 HD
ENDBRANCH   1  17
TORSDOF 1
