REMARK  Name = claudia.xyz
REMARK  2 active torsions:
REMARK  status: ('A' for Active; 'I' for Inactive)
REMARK    1  A    between atoms: C_8  and  C_9
REMARK    2  A    between atoms: C_12  and  O_13
REMARK                            x       y       z     vdW  Elec       q    Type
REMARK                         _______ _______ _______ _____ _____    ______ ____
ROOT
ATOM      1  O   UNL     1      -2.352  -1.619   0.329  0.00  0.00    +0.000 OA
ATOM      2  C   UNL     1      -1.436  -0.862   0.607  0.00  0.00    +0.000 C 
ATOM      3  N   UNL     1      -0.195  -1.261   1.018  0.00  0.00    +0.000 N 
ATOM      4  C   UNL     1       0.728  -0.299   1.295  0.00  0.00    +0.000 C 
ATOM      5  S   UNL     1       2.270  -0.626   1.801  0.00  0.00    +0.000 S 
ATOM      6  S   UNL     1       0.031   1.282   1.032  0.00  0.00    +0.000 S 
ATOM      7  C   UNL     1      -1.491   0.623   0.554  0.00  0.00    +0.000 C 
ATOM      8  C   UNL     1      -2.606   1.275   0.199  0.00  0.00    +0.000 C 
ATOM      9  H   UNL     1       0.025  -2.216   1.110  0.00  0.00    +0.000 HD
ENDROOT
BRANCH   8  10
ATOM     10  C   UNL     1      -2.767   2.731   0.132  0.00  0.00    +0.000 A 
ATOM     11  C   UNL     1      -2.064   3.499  -0.805  0.00  0.00    +0.000 A 
ATOM     12  C   UNL     1      -2.244   4.884  -0.862  0.00  0.00    +0.000 A 
ATOM     13  C   UNL     1      -3.135   5.494   0.015  0.00  0.00    +0.000 A 
ATOM     14  C   UNL     1      -3.848   4.744   0.942  0.00  0.00    +0.000 A 
ATOM     15  C   UNL     1      -3.667   3.361   1.000  0.00  0.00    +0.000 A 
BRANCH  13  16
ATOM     16  O   UNL     1      -3.341   6.841  -0.005  0.00  0.00    +0.000 OA
ATOM     17  H   UNL     1      -2.877   7.377  -0.618  0.00  0.00    +0.000 HD
ENDBRANCH  13  16
ENDBRANCH   8  10
TORSDOF 2
