REMARK  Name = claudia.xyz
REMARK  2 active torsions:
REMARK  status: ('A' for Active; 'I' for Inactive)
REMARK    1  A    between atoms: C_1  and  C_2
REMARK    2  A    between atoms: C_6  and  C_7
REMARK                            x       y       z     vdW  Elec       q    Type
REMARK                         _______ _______ _______ _____ _____    ______ ____
ROOT
ATOM      1  C   UNL     1       1.333   0.728  -0.261  0.00  0.00    +0.000 C 
ATOM      2  C   UNL     1       2.598  -0.023  -0.019  0.00  0.00    +0.000 C 
ATOM      3  O   UNL     1       3.081  -0.174   1.100  0.00  0.00    +0.000 OA
ATOM      4  N   UNL     1       3.261  -0.585  -1.135  0.00  0.00    +0.000 N 
ATOM      5  C   UNL     1       4.430  -1.326  -0.986  0.00  0.00    +0.000 A 
ATOM      6  C   UNL     1       4.848  -1.781  -2.206  0.00  0.00    +0.000 A 
ATOM      7  C   UNL     1       3.945  -1.294  -3.180  0.00  0.00    +0.000 A 
ATOM      8  C   UNL     1       3.884  -1.430  -4.586  0.00  0.00    +0.000 A 
ATOM      9  C   UNL     1       2.855  -0.825  -5.304  0.00  0.00    +0.000 A 
ATOM     10  C   UNL     1       1.887  -0.088  -4.641  0.00  0.00    +0.000 A 
ATOM     11  C   UNL     1       1.921   0.062  -3.249  0.00  0.00    +0.000 A 
ATOM     12  C   UNL     1       2.957  -0.548  -2.509  0.00  0.00    +0.000 A 
ENDROOT
BRANCH   6  13
ATOM     13  C   UNL     1       6.006  -2.582  -2.410  0.00  0.00    +0.000 C 
ATOM     14  C   UNL     1       6.049  -3.920  -2.384  0.00  0.00    +0.000 C 
ATOM     15  S   UNL     1       4.747  -5.020  -2.100  0.00  0.00    +0.000 S 
ATOM     16  C   UNL     1       5.786  -6.417  -2.262  0.00  0.00    +0.000 C 
ATOM     17  S   UNL     1       5.332  -8.003  -2.130  0.00  0.00    +0.000 S 
ATOM     18  N   UNL     1       7.060  -6.016  -2.522  0.00  0.00    +0.000 N 
ATOM     19  C   UNL     1       7.307  -4.675  -2.613  0.00  0.00    +0.000 C 
ATOM     20  O   UNL     1       8.397  -4.183  -2.854  0.00  0.00    +0.000 OA
ATOM     21  H   UNL     1       7.783  -6.673  -2.641  0.00  0.00    +0.000 HD
ENDBRANCH   6  13
TORSDOF 1
