REMARK  Name = claudia.xyz
REMARK  2 active torsions:
REMARK  status: ('A' for Active; 'I' for Inactive)
REMARK    1  A    between atoms: C_1  and  C_2
REMARK    2  A    between atoms: C_6  and  C_7
REMARK                            x       y       z     vdW  Elec       q    Type
REMARK                         _______ _______ _______ _____ _____    ______ ____
ROOT
ATOM      1  C   UNL     1       2.970   0.506   1.452  0.00  0.00    +0.000 C 
ATOM      2  C   UNL     1       2.563  -0.078   0.132  0.00  0.00    +0.000 C 
ATOM      3  O   UNL     1       1.738   0.438  -0.612  0.00  0.00    +0.000 OA
ATOM      4  N   UNL     1       3.199  -1.292  -0.220  0.00  0.00    +0.000 N 
ATOM      5  C   UNL     1       4.156  -1.965   0.529  0.00  0.00    +0.000 A 
ATOM      6  C   UNL     1       4.523  -3.121  -0.118  0.00  0.00    +0.000 A 
ATOM      7  C   UNL     1       3.805  -3.166  -1.343  0.00  0.00    +0.000 A 
ATOM      8  C   UNL     1       3.771  -4.081  -2.421  0.00  0.00    +0.000 A 
ATOM      9  C   UNL     1       2.931  -3.846  -3.512  0.00  0.00    +0.000 A 
ATOM     10  C   UNL     1       2.124  -2.717  -3.544  0.00  0.00    +0.000 A 
ATOM     11  C   UNL     1       2.137  -1.797  -2.492  0.00  0.00    +0.000 A 
ATOM     12  C   UNL     1       2.985  -2.031  -1.391  0.00  0.00    +0.000 A 
ENDROOT
BRANCH   6  13
ATOM     13  C   UNL     1       5.493  -4.073   0.327  0.00  0.00    +0.000 C 
ATOM     14  C   UNL     1       5.738  -4.512   1.570  0.00  0.00    +0.000 C 
ATOM     15  S   UNL     1       4.951  -4.104   3.048  0.00  0.00    +0.000 S 
ATOM     16  C   UNL     1       5.942  -5.206   3.979  0.00  0.00    +0.000 C 
ATOM     17  O   UNL     1       5.848  -5.365   5.184  0.00  0.00    +0.000 OA
ATOM     18  N   UNL     1       6.817  -5.839   3.159  0.00  0.00    +0.000 N 
ATOM     19  C   UNL     1       6.787  -5.534   1.831  0.00  0.00    +0.000 C 
ATOM     20  O   UNL     1       7.517  -6.031   0.989  0.00  0.00    +0.000 OA
ATOM     21  H   UNL     1       7.456  -6.499   3.512  0.00  0.00    +0.000 HD
ENDBRANCH   6  13
TORSDOF 1
