REMARK  Name = claudia.xyz
REMARK  1 active torsions:
REMARK  status: ('A' for Active; 'I' for Inactive)
REMARK    1  A    between atoms: C_8  and  C_9
REMARK                            x       y       z     vdW  Elec       q    Type
REMARK                         _______ _______ _______ _____ _____    ______ ____
ROOT
ATOM      1  O   UNL     1      -2.200  -1.440   0.124  0.00  0.00    +0.000 OA
ATOM      2  C   UNL     1      -1.247  -0.688   0.076  0.00  0.00    +0.000 C 
ATOM      3  N   UNL     1       0.086  -1.009   0.074  0.00  0.00    +0.000 N 
ATOM      4  C   UNL     1       0.868   0.115   0.010  0.00  0.00    +0.000 C 
ATOM      5  S   UNL     1       2.516   0.147  -0.013  0.00  0.00    +0.000 S 
ATOM      6  N   UNL     1       0.037   1.218  -0.032  0.00  0.00    +0.000 N 
ATOM      7  C   UNL     1      -1.267   0.807   0.004  0.00  0.00    +0.000 C 
ATOM      8  C   UNL     1      -2.366   1.565  -0.018  0.00  0.00    +0.000 C 
ATOM      9  H   UNL     1       0.436  -1.928   0.114  0.00  0.00    +0.000 HD
ATOM     10  H   UNL     1       0.337   2.155  -0.081  0.00  0.00    +0.000 HD
ENDROOT
BRANCH   8  11
ATOM     11  C   UNL     1      -2.330   3.025  -0.089  0.00  0.00    +0.000 A 
ATOM     12  C   UNL     1      -2.315   3.668  -1.331  0.00  0.00    +0.000 A 
ATOM     13  C   UNL     1      -2.258   5.061  -1.399  0.00  0.00    +0.000 A 
ATOM     14  C   UNL     1      -2.215   5.815  -0.227  0.00  0.00    +0.000 A 
ATOM     15  C   UNL     1      -2.227   5.178   1.014  0.00  0.00    +0.000 A 
ATOM     16  C   UNL     1      -2.284   3.785   1.084  0.00  0.00    +0.000 A 
ENDBRANCH   8  11
TORSDOF 1
