REMARK  Name = claudia.xyz
REMARK  4 active torsions:
REMARK  status: ('A' for Active; 'I' for Inactive)
REMARK    1  A    between atoms: C_1  and  N_2
REMARK    2  A    between atoms: N_2  and  C_3
REMARK    3  A    between atoms: N_2  and  C_4
REMARK    4  A    between atoms: C_7  and  C_8
REMARK                            x       y       z     vdW  Elec       q    Type
REMARK                         _______ _______ _______ _____ _____    ______ ____
ROOT
ATOM      1  C   UNL     1       5.418   4.387   2.387  0.00  0.00    +0.000 C 
ATOM      2  C   UNL     1       6.373   4.191   3.299  0.00  0.00    +0.000 C 
ATOM      3  N   UNL     1       6.836   3.000   3.787  0.00  0.00    +0.000 N 
ATOM      4  C   UNL     1       7.827   3.239   4.720  0.00  0.00    +0.000 C 
ATOM      5  S   UNL     1       8.658   2.090   5.559  0.00  0.00    +0.000 S 
ATOM      6  N   UNL     1       7.997   4.595   4.827  0.00  0.00    +0.000 N 
ATOM      7  C   UNL     1       7.146   5.270   3.991  0.00  0.00    +0.000 C 
ATOM      8  O   UNL     1       7.037   6.471   3.842  0.00  0.00    +0.000 OA
ATOM      9  H   UNL     1       6.514   2.110   3.515  0.00  0.00    +0.000 HD
ATOM     10  H   UNL     1       8.647   5.028   5.426  0.00  0.00    +0.000 HD
ENDROOT
BRANCH   1  14
ATOM     11  C   UNL     1       3.303   1.112   0.527  0.00  0.00    +0.000 A 
ATOM     12  C   UNL     1       2.798   1.786   1.654  0.00  0.00    +0.000 A 
ATOM     13  C   UNL     1       3.478   2.854   2.259  0.00  0.00    +0.000 A 
ATOM     14  C   UNL     1       4.693   3.293   1.743  0.00  0.00    +0.000 A 
ATOM     15  C   UNL     1       5.216   2.659   0.620  0.00  0.00    +0.000 A 
ATOM     16  C   UNL     1       4.526   1.593   0.024  0.00  0.00    +0.000 A 
BRANCH  11  18
ATOM     17  C   UNL     1       1.480  -0.553   0.609  0.00  0.00    +0.000 C 
ATOM     18  N   UNL     1       2.613   0.059  -0.083  0.00  0.00    +0.000 N 
ATOM     19  C   UNL     1       3.321  -0.804  -1.027  0.00  0.00    +0.000 C 
ENDBRANCH  11  18
ENDBRANCH   1  14
TORSDOF 2
