REMARK  Name = claudia.xyz
REMARK  1 active torsions:
REMARK  status: ('A' for Active; 'I' for Inactive)
REMARK    1  A    between atoms: C_8  and  C_9
REMARK                            x       y       z     vdW  Elec       q    Type
REMARK                         _______ _______ _______ _____ _____    ______ ____
ROOT
ATOM      1  O   UNL     1      -2.170  -1.511  -0.627  0.00  0.00    +0.000 OA
ATOM      2  C   UNL     1      -1.275  -0.780  -0.237  0.00  0.00    +0.000 C 
ATOM      3  N   UNL     1      -0.000  -1.191   0.034  0.00  0.00    +0.000 N 
ATOM      4  C   UNL     1       0.895  -0.260   0.462  0.00  0.00    +0.000 C 
ATOM      5  S   UNL     1       2.472  -0.602   0.830  0.00  0.00    +0.000 S 
ATOM      6  S   UNL     1       0.119   1.303   0.557  0.00  0.00    +0.000 S 
ATOM      7  C   UNL     1      -1.399   0.682   0.018  0.00  0.00    +0.000 C 
ATOM      8  C   UNL     1      -2.555   1.318  -0.213  0.00  0.00    +0.000 C 
ATOM      9  H   UNL     1       0.263  -2.133  -0.078  0.00  0.00    +0.000 HD
ENDROOT
BRANCH   8  10
ATOM     10  C   UNL     1      -2.783   2.712  -0.021  0.00  0.00    +0.000 A 
ATOM     11  C   UNL     1      -2.388   3.570   0.995  0.00  0.00    +0.000 A 
ATOM     12  C   UNL     1      -2.847   4.895   0.795  0.00  0.00    +0.000 A 
ATOM     13 BR   UNL     1      -2.452   6.282   2.008  0.00  0.00    +0.000 Br
ATOM     14  C   UNL     1      -3.595   5.043  -0.343  0.00  0.00    +0.000 A 
ATOM     15  S   UNL     1      -3.754   3.559  -1.174  0.00  0.00    +0.000 S 
ENDBRANCH   8  10
TORSDOF 1
