REMARK  Name = claudia.xyz
REMARK  1 active torsions:
REMARK  status: ('A' for Active; 'I' for Inactive)
REMARK    1  A    between atoms: C_7  and  C_8
REMARK                            x       y       z     vdW  Elec       q    Type
REMARK                         _______ _______ _______ _____ _____    ______ ____
ROOT
ATOM      1  O   UNL     1       2.531  -0.123   0.013  0.00  0.00    +0.000 OA
ATOM      2  C   UNL     1       1.316  -0.035   0.022  0.00  0.00    +0.000 C 
ATOM      3  N   UNL     1       0.426  -1.078   0.037  0.00  0.00    +0.000 N 
ATOM      4  C   UNL     1      -0.866  -0.635   0.043  0.00  0.00    +0.000 C 
ATOM      5  O   UNL     1      -1.887  -1.292   0.048  0.00  0.00    +0.000 OA
ATOM      6  C   UNL     1      -0.750   0.855   0.033  0.00  0.00    +0.000 C 
ATOM      7  C   UNL     1      -1.785   1.698   0.040  0.00  0.00    +0.000 C 
ATOM      8  N   UNL     1       0.586   1.140   0.018  0.00  0.00    +0.000 N 
ATOM      9  H   UNL     1       0.686  -2.028   0.042  0.00  0.00    +0.000 HD
ATOM     10  H   UNL     1       0.971   2.046   0.006  0.00  0.00    +0.000 HD
ENDROOT
BRANCH   7  11
ATOM     11  C   UNL     1      -1.605   3.105   0.017  0.00  0.00    +0.000 A 
ATOM     12  C   UNL     1      -1.547   3.955  -1.075  0.00  0.00    +0.000 A 
ATOM     13  C   UNL     1      -1.361   5.320  -0.700  0.00  0.00    +0.000 A 
ATOM     14  C   UNL     1      -1.295   5.451   0.661  0.00  0.00    +0.000 A 
ATOM     15 CL   UNL     1      -1.079   6.910   1.541  0.00  0.00    +0.000 Cl
ATOM     16  S   UNL     1      -1.452   3.986   1.489  0.00  0.00    +0.000 S 
ENDBRANCH   7  11
TORSDOF 1
