REMARK  Name = claudia.xyz
REMARK  4 active torsions:
REMARK  status: ('A' for Active; 'I' for Inactive)
REMARK    1  A    between atoms: C_1  and  O_2
REMARK    2  A    between atoms: O_2  and  C_3
REMARK    3  A    between atoms: C_5  and  C_6
REMARK    4  A    between atoms: C_16  and  O_17
REMARK                            x       y       z     vdW  Elec       q    Type
REMARK                         _______ _______ _______ _____ _____    ______ ____
ROOT
ATOM      1  C   UNL     1       3.000   1.082   0.013  0.00  0.00    +0.000 A 
ATOM      2  C   UNL     1       2.373   2.332   0.056  0.00  0.00    +0.000 A 
ATOM      3  C   UNL     1       3.136   3.508   0.082  0.00  0.00    +0.000 A 
ATOM      4  C   UNL     1       4.532   3.436   0.065  0.00  0.00    +0.000 A 
ATOM      5  C   UNL     1       5.167   2.196   0.023  0.00  0.00    +0.000 A 
ATOM      6  C   UNL     1       4.401   1.030  -0.003  0.00  0.00    +0.000 A 
ENDROOT
BRANCH   3   7
ATOM      7  C   UNL     1       2.472   4.812   0.135  0.00  0.00    +0.000 C 
ATOM      8  C   UNL     1       2.139   5.456   1.261  0.00  0.00    +0.000 C 
ATOM      9  S   UNL     1       2.392   4.949   2.892  0.00  0.00    +0.000 S 
ATOM     10  C   UNL     1       1.654   6.395   3.542  0.00  0.00    +0.000 C 
ATOM     11  S   UNL     1       1.460   6.769   5.143  0.00  0.00    +0.000 S 
ATOM     12  N   UNL     1       1.246   7.201   2.524  0.00  0.00    +0.000 N 
ATOM     13  C   UNL     1       1.464   6.780   1.243  0.00  0.00    +0.000 C 
ATOM     14  O   UNL     1       1.149   7.403   0.242  0.00  0.00    +0.000 OA
ATOM     15  H   UNL     1       0.806   8.063   2.706  0.00  0.00    +0.000 HD
ENDBRANCH   3   7
BRANCH   1  17
ATOM     16  C   UNL     1       0.930  -0.106   0.029  0.00  0.00    +0.000 C 
ATOM     17  O   UNL     1       2.350  -0.124  -0.015  0.00  0.00    +0.000 OA
ENDBRANCH   1  17
BRANCH   6  18
ATOM     18  O   UNL     1       5.024  -0.189  -0.045  0.00  0.00    +0.000 OA
ATOM     19  H   UNL     1       5.959  -0.237  -0.056  0.00  0.00    +0.000 HD
ENDBRANCH   6  18
TORSDOF 3
