REMARK  Name = claudia.xyz
REMARK  1 active torsions:
REMARK  status: ('A' for Active; 'I' for Inactive)
REMARK    1  A    between atoms: C_7  and  C_8
REMARK                            x       y       z     vdW  Elec       q    Type
REMARK                         _______ _______ _______ _____ _____    ______ ____
ROOT
ATOM      1  O   UNL     1      -2.329  -1.039   0.779  0.00  0.00    +0.000 OA
ATOM      2  C   UNL     1      -1.220  -0.624   0.490  0.00  0.00    +0.000 C 
ATOM      3  N   UNL     1      -0.174  -1.375   0.063  0.00  0.00    +0.000 N 
ATOM      4  C   UNL     1       1.011  -0.749  -0.177  0.00  0.00    +0.000 C 
ATOM      5  O   UNL     1       2.036  -1.314  -0.523  0.00  0.00    +0.000 OA
ATOM      6  C   UNL     1       0.868   0.712   0.064  0.00  0.00    +0.000 C 
ATOM      7  C   UNL     1       1.880   1.559  -0.157  0.00  0.00    +0.000 C 
ATOM      8  S   UNL     1      -0.739   1.058   0.587  0.00  0.00    +0.000 S 
ATOM      9  H   UNL     1      -0.270  -2.346  -0.068  0.00  0.00    +0.000 HD
ENDROOT
BRANCH   7  10
ATOM     10  C   UNL     1       1.878   3.012   0.000  0.00  0.00    +0.000 A 
ATOM     11  C   UNL     1       1.494   3.646   1.178  0.00  0.00    +0.000 A 
ATOM     12  C   UNL     1       1.569   5.036   1.245  0.00  0.00    +0.000 A 
ATOM     13  C   UNL     1       2.035   5.747   0.147  0.00  0.00    +0.000 A 
ATOM     14  C   UNL     1       2.418   5.034  -0.976  0.00  0.00    +0.000 A 
ATOM     15  N   UNL     1       2.359   3.687  -1.068  0.00  0.00    +0.000 NA
ENDBRANCH   7  10
TORSDOF 1
