REMARK  Name = claudia.xyz
REMARK  2 active torsions:
REMARK  status: ('A' for Active; 'I' for Inactive)
REMARK    1  A    between atoms: C_7  and  C_8
REMARK    2  A    between atoms: C_8  and  C_9
REMARK                            x       y       z     vdW  Elec       q    Type
REMARK                         _______ _______ _______ _____ _____    ______ ____
ROOT
ATOM      1  O   UNL     1       2.686  -0.645  -0.187  0.00  0.00    +0.000 OA
ATOM      2  C   UNL     1       1.587  -0.114  -0.123  0.00  0.00    +0.000 C 
ATOM      3  N   UNL     1       0.391  -0.771  -0.104  0.00  0.00    +0.000 N 
ATOM      4  C   UNL     1      -0.638   0.107  -0.040  0.00  0.00    +0.000 C 
ATOM      5  S   UNL     1      -2.239  -0.279  -0.007  0.00  0.00    +0.000 S 
ATOM      6  N   UNL     1      -0.137   1.387  -0.022  0.00  0.00    +0.000 N 
ATOM      7  C   UNL     1       1.310   1.391  -0.072  0.00  0.00    +0.000 C 
ATOM      8  H   UNL     1       0.290  -1.750  -0.132  0.00  0.00    +0.000 HD
ATOM      9  H   UNL     1      -0.693   2.198   0.020  0.00  0.00    +0.000 HD
ENDROOT
BRANCH   7  10
ATOM     10  C   UNL     1       1.993   2.091   1.103  0.00  0.00    +0.000 C 
BRANCH  10  11
ATOM     11  C   UNL     1       1.637   1.551   2.471  0.00  0.00    +0.000 A 
ATOM     12  C   UNL     1       2.406   0.534   3.054  0.00  0.00    +0.000 A 
ATOM     13  C   UNL     1       2.067   0.020   4.306  0.00  0.00    +0.000 A 
ATOM     14  C   UNL     1       0.957   0.515   4.987  0.00  0.00    +0.000 A 
ATOM     15  C   UNL     1       0.186   1.526   4.418  0.00  0.00    +0.000 A 
ATOM     16  C   UNL     1       0.524   2.042   3.166  0.00  0.00    +0.000 A 
ENDBRANCH  10  11
ENDBRANCH   7  10
TORSDOF 2
