REMARK  Name = claudia.xyz
REMARK  2 active torsions:
REMARK  status: ('A' for Active; 'I' for Inactive)
REMARK    1  A    between atoms: C_1  and  C_2
REMARK    2  A    between atoms: C_2  and  C_10
REMARK                            x       y       z     vdW  Elec       q    Type
REMARK                         _______ _______ _______ _____ _____    ______ ____
ROOT
ATOM      1  C   UNL     1       1.033  -0.141   0.192  0.00  0.00    +0.000 C 
ATOM      2  C   UNL     1       2.534  -0.047   0.009  0.00  0.00    +0.000 C 
ATOM      3  C   UNL     1       3.236   1.006   0.489  0.00  0.00    +0.000 C 
ATOM      4  S   UNL     1       4.959   1.253   0.372  0.00  0.00    +0.000 S 
ATOM      5  C   UNL     1       4.909   2.759   1.247  0.00  0.00    +0.000 C 
ATOM      6  S   UNL     1       6.196   3.733   1.615  0.00  0.00    +0.000 S 
ATOM      7  N   UNL     1       3.627   3.041   1.597  0.00  0.00    +0.000 N 
ATOM      8  C   UNL     1       2.645   2.163   1.234  0.00  0.00    +0.000 C 
ATOM      9  O   UNL     1       1.466   2.334   1.496  0.00  0.00    +0.000 OA
ATOM     10  H   UNL     1       3.411   3.859   2.101  0.00  0.00    +0.000 HD
ENDROOT
BRANCH   2  11
ATOM     11  C   UNL     1       3.241  -1.091  -0.682  0.00  0.00    +0.000 A 
ATOM     12  C   UNL     1       3.676  -1.128  -1.995  0.00  0.00    +0.000 A 
ATOM     13  C   UNL     1       4.332  -2.350  -2.325  0.00  0.00    +0.000 A 
ATOM     14  C   UNL     1       4.368  -3.217  -1.257  0.00  0.00    +0.000 A 
ATOM     15  S   UNL     1       3.611  -2.564   0.128  0.00  0.00    +0.000 S 
ENDBRANCH   2  11
TORSDOF 1
