REMARK  Name = claudia.xyz
REMARK  5 active torsions:
REMARK  status: ('A' for Active; 'I' for Inactive)
REMARK    1  A    between atoms: C_1  and  O_2
REMARK    2  A    between atoms: O_2  and  C_3
REMARK    3  A    between atoms: C_6  and  C_7
REMARK    4  A    between atoms: C_16  and  O_17
REMARK    5  A    between atoms: O_17  and  C_18
REMARK                            x       y       z     vdW  Elec       q    Type
REMARK                         _______ _______ _______ _____ _____    ______ ____
ROOT
ATOM      1  C   UNL     1       2.863  -0.140  -1.197  0.00  0.00    +0.000 A 
ATOM      2  C   UNL     1       2.532   0.741  -2.237  0.00  0.00    +0.000 A 
ATOM      3  C   UNL     1       3.318   0.822  -3.392  0.00  0.00    +0.000 A 
ATOM      4  C   UNL     1       4.453   0.026  -3.524  0.00  0.00    +0.000 A 
ATOM      5  C   UNL     1       4.788  -0.858  -2.496  0.00  0.00    +0.000 A 
ATOM      6  C   UNL     1       3.997  -0.961  -1.341  0.00  0.00    +0.000 A 
ENDROOT
BRANCH   4   7
ATOM      7  C   UNL     1       5.266   0.103  -4.737  0.00  0.00    +0.000 C 
ATOM      8  C   UNL     1       5.173  -0.772  -5.740  0.00  0.00    +0.000 C 
ATOM      9  N   UNL     1       4.349  -1.855  -5.838  0.00  0.00    +0.000 N 
ATOM     10  C   UNL     1       4.557  -2.495  -7.047  0.00  0.00    +0.000 C 
ATOM     11  O   UNL     1       3.974  -3.488  -7.442  0.00  0.00    +0.000 OA
ATOM     12  N   UNL     1       5.532  -1.806  -7.720  0.00  0.00    +0.000 N 
ATOM     13  C   UNL     1       5.972  -0.729  -7.003  0.00  0.00    +0.000 C 
ATOM     14  O   UNL     1       6.814   0.089  -7.315  0.00  0.00    +0.000 OA
ATOM     15  H   UNL     1       3.703  -2.139  -5.151  0.00  0.00    +0.000 HD
ATOM     16  H   UNL     1       5.874  -2.055  -8.609  0.00  0.00    +0.000 HD
ENDBRANCH   4   7
BRANCH   1  18
ATOM     17  C   UNL     1       1.047   0.654   0.149  0.00  0.00    +0.000 C 
ATOM     18  O   UNL     1       2.146  -0.229  -0.034  0.00  0.00    +0.000 OA
ENDBRANCH   1  18
BRANCH   6  19
ATOM     19  O   UNL     1       4.493  -1.879  -0.450  0.00  0.00    +0.000 OA
ATOM     20  C   UNL     1       3.596  -2.432   0.503  0.00  0.00    +0.000 C 
ENDBRANCH   6  19
TORSDOF 3
