REMARK  Name = claudia.xyz
REMARK  1 active torsions:
REMARK  status: ('A' for Active; 'I' for Inactive)
REMARK    1  A    between atoms: C_8  and  C_9
REMARK                            x       y       z     vdW  Elec       q    Type
REMARK                         _______ _______ _______ _____ _____    ______ ____
ROOT
ATOM      1  O   UNL     1      -3.098  -1.199   0.699  0.00  0.00    +0.000 OA
ATOM      2  C   UNL     1      -3.536  -0.505  -0.196  0.00  0.00    +0.000 C 
ATOM      3  N   UNL     1      -4.372  -0.872  -1.218  0.00  0.00    +0.000 N 
ATOM      4  C   UNL     1      -4.664   0.194  -2.029  0.00  0.00    +0.000 C 
ATOM      5  S   UNL     1      -5.643   0.162  -3.354  0.00  0.00    +0.000 S 
ATOM      6  N   UNL     1      -3.997   1.301  -1.543  0.00  0.00    +0.000 N 
ATOM      7  C   UNL     1      -3.284   0.952  -0.427  0.00  0.00    +0.000 C 
ATOM      8  C   UNL     1      -2.526   1.731   0.349  0.00  0.00    +0.000 C 
ATOM      9  H   UNL     1      -4.719  -1.784  -1.352  0.00  0.00    +0.000 HD
ATOM     10  H   UNL     1      -4.029   2.202  -1.939  0.00  0.00    +0.000 HD
ENDROOT
BRANCH   8  11
ATOM     11  C   UNL     1      -2.272   3.121   0.157  0.00  0.00    +0.000 A 
ATOM     12  C   UNL     1      -2.401   4.053   1.162  0.00  0.00    +0.000 A 
ATOM     13  N   UNL     1      -2.103   5.282   0.634  0.00  0.00    +0.000 N 
ATOM     14  C   UNL     1      -1.752   5.159  -0.691  0.00  0.00    +0.000 A 
ATOM     15  C   UNL     1      -1.365   6.141  -1.612  0.00  0.00    +0.000 A 
ATOM     16  C   UNL     1      -1.036   5.724  -2.905  0.00  0.00    +0.000 A 
ATOM     17  C   UNL     1      -1.085   4.378  -3.258  0.00  0.00    +0.000 A 
ATOM     18  C   UNL     1      -1.474   3.410  -2.326  0.00  0.00    +0.000 A 
ATOM     19  C   UNL     1      -1.830   3.803  -1.017  0.00  0.00    +0.000 A 
ATOM     20  H   UNL     1      -2.135   6.131   1.132  0.00  0.00    +0.000 HD
ENDBRANCH   8  11
TORSDOF 1
