REMARK  Name = claudia.xyz
REMARK  1 active torsions:
REMARK  status: ('A' for Active; 'I' for Inactive)
REMARK    1  A    between atoms: C_7  and  C_8
REMARK                            x       y       z     vdW  Elec       q    Type
REMARK                         _______ _______ _______ _____ _____    ______ ____
ROOT
ATOM      1  C   UNL     1      -1.608   3.169   0.072  0.00  0.00    +0.000 A 
ATOM      2  C   UNL     1      -1.516   3.909  -1.111  0.00  0.00    +0.000 A 
ATOM      3  F   UNL     1      -1.555   3.284  -2.297  0.00  0.00    +0.000 F 
ATOM      4  C   UNL     1      -1.379   5.295  -1.077  0.00  0.00    +0.000 A 
ATOM      5  F   UNL     1      -1.289   5.986  -2.221  0.00  0.00    +0.000 F 
ATOM      6  C   UNL     1      -1.331   5.958   0.141  0.00  0.00    +0.000 A 
ATOM      7  F   UNL     1      -1.196   7.291   0.174  0.00  0.00    +0.000 F 
ATOM      8  C   UNL     1      -1.418   5.239   1.325  0.00  0.00    +0.000 A 
ATOM      9  F   UNL     1      -1.366   5.877   2.502  0.00  0.00    +0.000 F 
ATOM     10  C   UNL     1      -1.555   3.854   1.291  0.00  0.00    +0.000 A 
ATOM     11  F   UNL     1      -1.633   3.174   2.444  0.00  0.00    +0.000 F 
ENDROOT
BRANCH   1  18
ATOM     12  O   UNL     1       2.537  -0.160   0.031  0.00  0.00    +0.000 OA
ATOM     13  C   UNL     1       1.323  -0.061   0.023  0.00  0.00    +0.000 C 
ATOM     14  N   UNL     1       0.422  -1.093  -0.008  0.00  0.00    +0.000 N 
ATOM     15  C   UNL     1      -0.864  -0.634  -0.009  0.00  0.00    +0.000 C 
ATOM     16  O   UNL     1      -1.894  -1.278  -0.031  0.00  0.00    +0.000 OA
ATOM     17  C   UNL     1      -0.729   0.856   0.026  0.00  0.00    +0.000 C 
ATOM     18  C   UNL     1      -1.753   1.712   0.037  0.00  0.00    +0.000 C 
ATOM     19  N   UNL     1       0.608   1.125   0.043  0.00  0.00    +0.000 N 
ATOM     20  H   UNL     1       0.671  -2.045  -0.027  0.00  0.00    +0.000 HD
ATOM     21  H   UNL     1       1.005   2.026   0.066  0.00  0.00    +0.000 HD
ENDBRANCH   1  18
TORSDOF 1
