REMARK  Name = claudia.xyz
REMARK  5 active torsions:
REMARK  status: ('A' for Active; 'I' for Inactive)
REMARK    1  A    between atoms: C_1  and  C_2
REMARK    2  A    between atoms: C_2  and  C_3
REMARK    3  A    between atoms: C_3  and  C_4
REMARK    4  A    between atoms: C_4  and  C_5
REMARK    5  A    between atoms: C_6  and  C_7
REMARK                            x       y       z     vdW  Elec       q    Type
REMARK                         _______ _______ _______ _____ _____    ______ ____
ROOT
ATOM      1  C   UNL     1       6.834   2.254   4.066  0.00  0.00    +0.000 C 
ATOM      2  N   UNL     1       7.656   1.323   4.797  0.00  0.00    +0.000 N 
ATOM      3  C   UNL     1       8.941   1.782   4.945  0.00  0.00    +0.000 C 
ATOM      4  S   UNL     1      10.142   0.986   5.744  0.00  0.00    +0.000 S 
ATOM      5  N   UNL     1       9.059   2.983   4.332  0.00  0.00    +0.000 N 
ATOM      6  C   UNL     1       7.873   3.352   3.761  0.00  0.00    +0.000 C 
ATOM      7  O   UNL     1       7.694   4.377   3.120  0.00  0.00    +0.000 OA
ATOM      8  H   UNL     1       7.335   0.461   5.148  0.00  0.00    +0.000 HD
ATOM      9  H   UNL     1       9.885   3.518   4.301  0.00  0.00    +0.000 HD
ENDROOT
BRANCH   1  11
ATOM     10  C   UNL     1       5.010   1.383   2.584  0.00  0.00    +0.000 C 
ATOM     11  C   UNL     1       6.315   1.574   2.843  0.00  0.00    +0.000 C 
BRANCH  10  12
ATOM     12  C   UNL     1       4.494   0.708   1.344  0.00  0.00    +0.000 C 
BRANCH  12  13
ATOM     13  C   UNL     1       3.623   1.657   0.518  0.00  0.00    +0.000 C 
BRANCH  13  15
ATOM     14  C   UNL     1       2.217   1.907  -1.558  0.00  0.00    +0.000 C 
ATOM     15  C   UNL     1       3.089   0.969  -0.738  0.00  0.00    +0.000 C 
ENDBRANCH  13  15
ENDBRANCH  12  13
ENDBRANCH  10  12
ENDBRANCH   1  11
TORSDOF 4
