REMARK  Name = claudia.xyz
REMARK  1 active torsions:
REMARK  status: ('A' for Active; 'I' for Inactive)
REMARK    1  A    between atoms: C_8  and  C_9
REMARK                            x       y       z     vdW  Elec       q    Type
REMARK                         _______ _______ _______ _____ _____    ______ ____
ROOT
ATOM      1  O   UNL     1      -2.274  -1.302   0.526  0.00  0.00    +0.000 OA
ATOM      2  C   UNL     1      -1.303  -0.632   0.235  0.00  0.00    +0.000 C 
ATOM      3  N   UNL     1      -0.017  -1.054   0.022  0.00  0.00    +0.000 N 
ATOM      4  C   UNL     1       0.805  -0.001  -0.284  0.00  0.00    +0.000 C 
ATOM      5  S   UNL     1       2.419  -0.093  -0.605  0.00  0.00    +0.000 S 
ATOM      6  N   UNL     1       0.049   1.156  -0.276  0.00  0.00    +0.000 N 
ATOM      7  C   UNL     1      -1.250   0.850   0.028  0.00  0.00    +0.000 C 
ATOM      8  C   UNL     1      -2.301   1.664   0.151  0.00  0.00    +0.000 C 
ATOM      9  H   UNL     1       0.278  -1.991   0.080  0.00  0.00    +0.000 HD
ATOM     10  H   UNL     1       0.392   2.060  -0.460  0.00  0.00    +0.000 HD
ENDROOT
BRANCH   8  11
ATOM     11  C   UNL     1      -2.218   3.071  -0.039  0.00  0.00    +0.000 A 
ATOM     12  S   UNL     1      -2.676   4.109   1.263  0.00  0.00    +0.000 S 
ATOM     13  C   UNL     1      -2.331   5.521   0.365  0.00  0.00    +0.000 A 
ATOM     14  C   UNL     1      -1.902   5.232  -0.910  0.00  0.00    +0.000 A 
ATOM     15  C   UNL     1      -1.851   3.831  -1.134  0.00  0.00    +0.000 A 
ATOM     16 BR   UNL     1      -1.342   3.166  -2.834  0.00  0.00    +0.000 Br
ENDBRANCH   8  11
TORSDOF 1
