REMARK  Name = claudia.xyz
REMARK  1 active torsions:
REMARK  status: ('A' for Active; 'I' for Inactive)
REMARK    1  A    between atoms: C_8  and  C_9
REMARK                            x       y       z     vdW  Elec       q    Type
REMARK                         _______ _______ _______ _____ _____    ______ ____
ROOT
ATOM      1  O   UNL     1      -2.291  -1.358   0.131  0.00  0.00    +0.000 OA
ATOM      2  C   UNL     1      -1.292  -0.668   0.072  0.00  0.00    +0.000 C 
ATOM      3  N   UNL     1       0.018  -1.070   0.064  0.00  0.00    +0.000 N 
ATOM      4  C   UNL     1       0.866   0.004  -0.012  0.00  0.00    +0.000 C 
ATOM      5  S   UNL     1       2.513  -0.065  -0.045  0.00  0.00    +0.000 S 
ATOM      6  N   UNL     1       0.102   1.154  -0.056  0.00  0.00    +0.000 N 
ATOM      7  C   UNL     1      -1.225   0.825  -0.009  0.00  0.00    +0.000 C 
ATOM      8  C   UNL     1      -2.288   1.632  -0.027  0.00  0.00    +0.000 C 
ATOM      9  H   UNL     1       0.311  -2.009   0.107  0.00  0.00    +0.000 HD
ATOM     10  H   UNL     1       0.458   2.070  -0.113  0.00  0.00    +0.000 HD
ENDROOT
BRANCH   8  11
ATOM     11  C   UNL     1      -2.184   3.048  -0.104  0.00  0.00    +0.000 A 
ATOM     12  C   UNL     1      -3.208   3.989  -0.118  0.00  0.00    +0.000 A 
ATOM     13  C   UNL     1      -2.622   5.274  -0.206  0.00  0.00    +0.000 A 
ATOM     14  C   UNL     1      -1.268   5.066  -0.242  0.00  0.00    +0.000 A 
ATOM     15  O   UNL     1      -0.992   3.741  -0.181  0.00  0.00    +0.000 OA
ENDBRANCH   8  11
TORSDOF 1
