REMARK  Name = claudia.xyz
REMARK  3 active torsions:
REMARK  status: ('A' for Active; 'I' for Inactive)
REMARK    1  A    between atoms: C_1  and  C_2
REMARK    2  A    between atoms: C_10  and  C_11
REMARK    3  A    between atoms: C_11  and  C_12
REMARK                            x       y       z     vdW  Elec       q    Type
REMARK                         _______ _______ _______ _____ _____    ______ ____
ROOT
ATOM      1  C   UNL     1       6.110  -1.173  -2.132  0.00  0.00    +0.000 C 
ATOM      2  C   UNL     1       5.384  -2.363  -2.715  0.00  0.00    +0.000 C 
ATOM      3  O   UNL     1       6.038  -3.215  -3.314  0.00  0.00    +0.000 OA
ATOM      4  N   UNL     1       3.998  -2.382  -2.585  0.00  0.00    +0.000 N 
ATOM      5  C   UNL     1       3.153  -3.509  -2.733  0.00  0.00    +0.000 C 
ATOM      6  S   UNL     1       3.501  -5.080  -3.138  0.00  0.00    +0.000 S 
ATOM      7  N   UNL     1       1.878  -3.142  -2.419  0.00  0.00    +0.000 N 
ATOM      8  C   UNL     1       1.810  -1.840  -2.050  0.00  0.00    +0.000 C 
ATOM      9  O   UNL     1       0.809  -1.267  -1.648  0.00  0.00    +0.000 OA
ATOM     10  C   UNL     1       3.185  -1.217  -2.216  0.00  0.00    +0.000 C 
ATOM     11  H   UNL     1       1.102  -3.747  -2.457  0.00  0.00    +0.000 HD
ENDROOT
BRANCH  10  12
ATOM     12  C   UNL     1       3.134  -0.088  -3.256  0.00  0.00    +0.000 C 
BRANCH  12  13
ATOM     13  C   UNL     1       2.843  -0.544  -4.656  0.00  0.00    +0.000 A 
ATOM     14  C   UNL     1       3.771  -0.983  -5.581  0.00  0.00    +0.000 A 
ATOM     15  N   UNL     1       3.107  -1.344  -6.723  0.00  0.00    +0.000 N 
ATOM     16  C   UNL     1       1.758  -1.127  -6.575  0.00  0.00    +0.000 A 
ATOM     17  C   UNL     1       0.709  -1.345  -7.477  0.00  0.00    +0.000 A 
ATOM     18  C   UNL     1      -0.585  -1.032  -7.053  0.00  0.00    +0.000 A 
ATOM     19  C   UNL     1      -0.817  -0.521  -5.780  0.00  0.00    +0.000 A 
ATOM     20  C   UNL     1       0.243  -0.309  -4.891  0.00  0.00    +0.000 A 
ATOM     21  C   UNL     1       1.560  -0.618  -5.292  0.00  0.00    +0.000 A 
ATOM     22  H   UNL     1       3.535  -1.705  -7.532  0.00  0.00    +0.000 HD
ENDBRANCH  12  13
ENDBRANCH  10  12
TORSDOF 2
