REMARK  Name = claudia.xyz
REMARK  1 active torsions:
REMARK  status: ('A' for Active; 'I' for Inactive)
REMARK    1  A    between atoms: C_7  and  C_8
REMARK                            x       y       z     vdW  Elec       q    Type
REMARK                         _______ _______ _______ _____ _____    ______ ____
ROOT
ATOM      1  O   UNL     1       2.422  -0.225  -0.663  0.00  0.00    +0.000 OA
ATOM      2  C   UNL     1       1.243  -0.096  -0.389  0.00  0.00    +0.000 C 
ATOM      3  N   UNL     1       0.358  -1.105  -0.113  0.00  0.00    +0.000 N 
ATOM      4  C   UNL     1      -0.880  -0.614   0.191  0.00  0.00    +0.000 C 
ATOM      5  O   UNL     1      -1.877  -1.236   0.501  0.00  0.00    +0.000 OA
ATOM      6  C   UNL     1      -0.739   0.869   0.062  0.00  0.00    +0.000 C 
ATOM      7  C   UNL     1      -1.727   1.737   0.295  0.00  0.00    +0.000 C 
ATOM      8  N   UNL     1       0.559   1.103  -0.290  0.00  0.00    +0.000 N 
ATOM      9  H   UNL     1       0.585  -2.062  -0.132  0.00  0.00    +0.000 HD
ATOM     10  H   UNL     1       0.951   1.992  -0.450  0.00  0.00    +0.000 HD
ENDROOT
BRANCH   7  11
ATOM     11  C   UNL     1      -1.588   3.147   0.160  0.00  0.00    +0.000 A 
ATOM     12  C   UNL     1      -0.965   3.900  -0.823  0.00  0.00    +0.000 A 
ATOM     13  C   UNL     1      -1.054   5.304  -0.592  0.00  0.00    +0.000 A 
ATOM     14  C   UNL     1      -1.758   5.591   0.554  0.00  0.00    +0.000 A 
ATOM     15  S   UNL     1      -2.317   4.178   1.332  0.00  0.00    +0.000 S 
ENDBRANCH   7  11
TORSDOF 1
