REMARK  Name = claudia.xyz
REMARK  1 active torsions:
REMARK  status: ('A' for Active; 'I' for Inactive)
REMARK    1  A    between atoms: C_8  and  C_9
REMARK                            x       y       z     vdW  Elec       q    Type
REMARK                         _______ _______ _______ _____ _____    ______ ____
ROOT
ATOM      1  O   UNL     1      -2.230  -1.483   0.492  0.00  0.00    +0.000 OA
ATOM      2  C   UNL     1      -1.271  -0.783   0.209  0.00  0.00    +0.000 C 
ATOM      3  N   UNL     1      -0.002  -1.248   0.010  0.00  0.00    +0.000 N 
ATOM      4  C   UNL     1       0.968  -0.345  -0.295  0.00  0.00    +0.000 C 
ATOM      5  S   UNL     1       2.550  -0.753  -0.560  0.00  0.00    +0.000 S 
ATOM      6  S   UNL     1       0.281   1.260  -0.354  0.00  0.00    +0.000 S 
ATOM      7  C   UNL     1      -1.302   0.698   0.031  0.00  0.00    +0.000 C 
ATOM      8  C   UNL     1      -2.452   1.369   0.187  0.00  0.00    +0.000 C 
ATOM      9  H   UNL     1       0.203  -2.208   0.084  0.00  0.00    +0.000 HD
ENDROOT
BRANCH   8  10
ATOM     10  C   UNL     1      -2.631   2.769   0.052  0.00  0.00    +0.000 A 
ATOM     11  C   UNL     1      -1.901   3.868  -0.357  0.00  0.00    +0.000 A 
ATOM     12  N   UNL     1      -2.638   5.023  -0.268  0.00  0.00    +0.000 NA
ATOM     13  C   UNL     1      -3.809   4.650   0.186  0.00  0.00    +0.000 A 
ATOM     14  N   UNL     1      -3.857   3.301   0.392  0.00  0.00    +0.000 N 
ATOM     15  H   UNL     1      -4.633   2.795   0.726  0.00  0.00    +0.000 HD
ENDBRANCH   8  10
TORSDOF 1
