REMARK  Name = claudia.xyz
REMARK  1 active torsions:
REMARK  status: ('A' for Active; 'I' for Inactive)
REMARK    1  A    between atoms: C_8  and  C_9
REMARK                            x       y       z     vdW  Elec       q    Type
REMARK                         _______ _______ _______ _____ _____    ______ ____
ROOT
ATOM      1  O   UNL     1      -2.607  -1.378   0.076  0.00  0.00    +0.000 OA
ATOM      2  C   UNL     1      -3.380  -0.601  -0.447  0.00  0.00    +0.000 C 
ATOM      3  N   UNL     1      -4.541  -0.883  -1.118  0.00  0.00    +0.000 N 
ATOM      4  C   UNL     1      -5.144   0.262  -1.570  0.00  0.00    +0.000 C 
ATOM      5  S   UNL     1      -6.555   0.341  -2.419  0.00  0.00    +0.000 S 
ATOM      6  N   UNL     1      -4.367   1.340  -1.192  0.00  0.00    +0.000 N 
ATOM      7  C   UNL     1      -3.273   0.891  -0.503  0.00  0.00    +0.000 C 
ATOM      8  C   UNL     1      -2.285   1.615   0.027  0.00  0.00    +0.000 C 
ATOM      9  H   UNL     1      -4.896  -1.791  -1.257  0.00  0.00    +0.000 HD
ATOM     10  H   UNL     1      -4.569   2.283  -1.387  0.00  0.00    +0.000 HD
ENDROOT
BRANCH   8  11
ATOM     11  C   UNL     1      -2.228   3.074  -0.055  0.00  0.00    +0.000 A 
ATOM     12  C   UNL     1      -1.590   3.690  -1.132  0.00  0.00    +0.000 A 
ATOM     13  C   UNL     1      -1.556   5.084  -1.223  0.00  0.00    +0.000 A 
ATOM     14  C   UNL     1      -2.162   5.882  -0.240  0.00  0.00    +0.000 A 
ATOM     15  C   UNL     1      -2.137   7.283  -0.317  0.00  0.00    +0.000 A 
ATOM     16  C   UNL     1      -2.743   8.063   0.669  0.00  0.00    +0.000 A 
ATOM     17  C   UNL     1      -3.382   7.452   1.743  0.00  0.00    +0.000 A 
ATOM     18  C   UNL     1      -3.417   6.060   1.835  0.00  0.00    +0.000 A 
ATOM     19  C   UNL     1      -2.811   5.261   0.852  0.00  0.00    +0.000 A 
ATOM     20  C   UNL     1      -2.837   3.858   0.931  0.00  0.00    +0.000 A 
ENDBRANCH   8  11
TORSDOF 1
