REMARK  Name = claudia.xyz
REMARK  4 active torsions:
REMARK  status: ('A' for Active; 'I' for Inactive)
REMARK    1  A    between atoms: C_1  and  O_2
REMARK    2  A    between atoms: O_2  and  C_3
REMARK    3  A    between atoms: C_5  and  C_6
REMARK    4  A    between atoms: C_16  and  O_17
REMARK                            x       y       z     vdW  Elec       q    Type
REMARK                         _______ _______ _______ _____ _____    ______ ____
ROOT
ATOM      1  C   UNL     1       3.074   1.098   0.014  0.00  0.00    +0.000 A 
ATOM      2  C   UNL     1       2.463   2.355   0.071  0.00  0.00    +0.000 A 
ATOM      3  C   UNL     1       3.242   3.521   0.120  0.00  0.00    +0.000 A 
ATOM      4  C   UNL     1       4.637   3.431   0.109  0.00  0.00    +0.000 A 
ATOM      5  C   UNL     1       5.256   2.183   0.049  0.00  0.00    +0.000 A 
ATOM      6  C   UNL     1       4.475   1.029   0.001  0.00  0.00    +0.000 A 
ENDROOT
BRANCH   3   7
ATOM      7  C   UNL     1       2.598   4.834   0.153  0.00  0.00    +0.000 C 
ATOM      8  C   UNL     1       2.210   5.487  -0.945  0.00  0.00    +0.000 C 
ATOM      9  N   UNL     1       2.329   5.086  -2.248  0.00  0.00    +0.000 N 
ATOM     10  C   UNL     1       1.806   6.061  -3.077  0.00  0.00    +0.000 C 
ATOM     11  S   UNL     1       1.747   5.995  -4.722  0.00  0.00    +0.000 S 
ATOM     12  N   UNL     1       1.348   7.089  -2.295  0.00  0.00    +0.000 N 
ATOM     13  C   UNL     1       1.551   6.831  -0.965  0.00  0.00    +0.000 C 
ATOM     14  O   UNL     1       1.266   7.528  -0.012  0.00  0.00    +0.000 OA
ATOM     15  H   UNL     1       2.726   4.237  -2.548  0.00  0.00    +0.000 HD
ATOM     16  H   UNL     1       0.927   7.908  -2.644  0.00  0.00    +0.000 HD
ENDBRANCH   3   7
BRANCH   1  18
ATOM     17  C   UNL     1       0.992  -0.066   0.056  0.00  0.00    +0.000 C 
ATOM     18  O   UNL     1       2.408  -0.098  -0.040  0.00  0.00    +0.000 OA
ENDBRANCH   1  18
BRANCH   6  19
ATOM     19  O   UNL     1       5.082  -0.198  -0.060  0.00  0.00    +0.000 OA
ATOM     20  H   UNL     1       6.017  -0.258  -0.069  0.00  0.00    +0.000 HD
ENDBRANCH   6  19
TORSDOF 3
