REMARK  Name = claudia.xyz
REMARK  3 active torsions:
REMARK  status: ('A' for Active; 'I' for Inactive)
REMARK    1  A    between atoms: C_7  and  C_8
REMARK    2  A    between atoms: C_8  and  C_9
REMARK    3  A    between atoms: C_12  and  O_13
REMARK                            x       y       z     vdW  Elec       q    Type
REMARK                         _______ _______ _______ _____ _____    ______ ____
ROOT
ATOM      1  O   UNL     1       2.595  -0.740  -0.089  0.00  0.00    +0.000 OA
ATOM      2  C   UNL     1       1.525  -0.150  -0.070  0.00  0.00    +0.000 C 
ATOM      3  N   UNL     1       0.295  -0.742  -0.071  0.00  0.00    +0.000 N 
ATOM      4  C   UNL     1      -0.686   0.190  -0.051  0.00  0.00    +0.000 C 
ATOM      5  S   UNL     1      -2.306  -0.110  -0.057  0.00  0.00    +0.000 S 
ATOM      6  N   UNL     1      -0.119   1.442  -0.040  0.00  0.00    +0.000 N 
ATOM      7  C   UNL     1       1.328   1.368  -0.061  0.00  0.00    +0.000 C 
ATOM      8  H   UNL     1       0.143  -1.714  -0.083  0.00  0.00    +0.000 HD
ATOM      9  H   UNL     1      -0.631   2.282  -0.019  0.00  0.00    +0.000 HD
ENDROOT
BRANCH   7  10
ATOM     10  C   UNL     1       2.026   2.063   1.107  0.00  0.00    +0.000 C 
BRANCH  10  11
ATOM     11  C   UNL     1       1.628   1.573   2.482  0.00  0.00    +0.000 A 
ATOM     12  C   UNL     1       2.343   0.537   3.102  0.00  0.00    +0.000 A 
ATOM     13  C   UNL     1       1.968   0.070   4.364  0.00  0.00    +0.000 A 
ATOM     14  C   UNL     1       0.875   0.639   5.006  0.00  0.00    +0.000 A 
ATOM     15  C   UNL     1       0.154   1.665   4.409  0.00  0.00    +0.000 A 
ATOM     16  C   UNL     1       0.529   2.132   3.148  0.00  0.00    +0.000 A 
BRANCH  14  17
ATOM     17  O   UNL     1       0.473   0.214   6.238  0.00  0.00    +0.000 OA
ATOM     18  H   UNL     1       0.938  -0.476   6.670  0.00  0.00    +0.000 HD
ENDBRANCH  14  17
ENDBRANCH  10  11
ENDBRANCH   7  10
TORSDOF 3
