REMARK  Name = claudia.xyz
REMARK  4 active torsions:
REMARK  status: ('A' for Active; 'I' for Inactive)
REMARK    1  A    between atoms: C_1  and  N_2
REMARK    2  A    between atoms: N_2  and  C_3
REMARK    3  A    between atoms: N_2  and  C_4
REMARK    4  A    between atoms: C_7  and  C_8
REMARK                            x       y       z     vdW  Elec       q    Type
REMARK                         _______ _______ _______ _____ _____    ______ ____
ROOT
ATOM      1  C   UNL     1       5.456  -1.468  -4.691  0.00  0.00    +0.000 C 
ATOM      2  C   UNL     1       6.444  -0.690  -5.139  0.00  0.00    +0.000 C 
ATOM      3  N   UNL     1       6.904   0.476  -4.598  0.00  0.00    +0.000 N 
ATOM      4  C   UNL     1       7.944   0.970  -5.365  0.00  0.00    +0.000 C 
ATOM      5  O   UNL     1       8.571   1.992  -5.151  0.00  0.00    +0.000 OA
ATOM      6  N   UNL     1       8.141   0.101  -6.408  0.00  0.00    +0.000 N 
ATOM      7  C   UNL     1       7.270  -0.950  -6.356  0.00  0.00    +0.000 C 
ATOM      8  O   UNL     1       7.181  -1.889  -7.122  0.00  0.00    +0.000 OA
ATOM      9  H   UNL     1       6.549   0.902  -3.784  0.00  0.00    +0.000 HD
ATOM     10  H   UNL     1       8.825   0.221  -7.106  0.00  0.00    +0.000 HD
ENDROOT
BRANCH   1  14
ATOM     11  C   UNL     1       3.201  -0.523  -1.130  0.00  0.00    +0.000 A 
ATOM     12  C   UNL     1       2.838  -0.031  -2.397  0.00  0.00    +0.000 A 
ATOM     13  C   UNL     1       3.564  -0.336  -3.559  0.00  0.00    +0.000 A 
ATOM     14  C   UNL     1       4.680  -1.164  -3.491  0.00  0.00    +0.000 A 
ATOM     15  C   UNL     1       5.060  -1.681  -2.256  0.00  0.00    +0.000 A 
ATOM     16  C   UNL     1       4.326  -1.367  -1.102  0.00  0.00    +0.000 A 
BRANCH  11  18
ATOM     17  C   UNL     1       1.458   0.829  -0.019  0.00  0.00    +0.000 C 
ATOM     18  N   UNL     1       2.465  -0.230   0.022  0.00  0.00    +0.000 N 
ATOM     19  C   UNL     1       3.059  -0.489   1.332  0.00  0.00    +0.000 C 
ENDBRANCH  11  18
ENDBRANCH   1  14
TORSDOF 2
