REMARK  Name = claudia.xyz
REMARK  0 active torsions:
REMARK  status: ('A' for Active; 'I' for Inactive)
REMARK                            x       y       z     vdW  Elec       q    Type
REMARK                         _______ _______ _______ _____ _____    ______ ____
ROOT
ATOM      1  O   UNL     1       1.644  -0.247   1.331  0.00  0.00    +0.000 OA
ATOM      2  C   UNL     1       2.590  -0.147   0.567  0.00  0.00    +0.000 C 
ATOM      3  N   UNL     1       2.958  -1.154  -0.281  0.00  0.00    +0.000 N 
ATOM      4  C   UNL     1       4.051  -0.973  -1.063  0.00  0.00    +0.000 C 
ATOM      5  S   UNL     1       4.627  -2.112  -2.116  0.00  0.00    +0.000 S 
ATOM      6  S   UNL     1       4.718   0.607  -0.770  0.00  0.00    +0.000 S 
ATOM      7  C   UNL     1       3.516   1.027   0.423  0.00  0.00    +0.000 C 
ATOM      8  C   UNL     1       3.393   2.219   1.051  0.00  0.00    +0.000 C 
ATOM      9  C   UNL     1       2.210   2.627   1.905  0.00  0.00    +0.000 C 
ATOM     10  C   UNL     1       1.567   3.835   1.233  0.00  0.00    +0.000 C 
ATOM     11  O   UNL     1       2.431   4.971   1.175  0.00  0.00    +0.000 OA
ATOM     12  C   UNL     1       3.760   4.691   0.969  0.00  0.00    +0.000 A 
ATOM     13  C   UNL     1       4.580   5.820   0.872  0.00  0.00    +0.000 A 
ATOM     14  C   UNL     1       5.959   5.678   0.748  0.00  0.00    +0.000 A 
ATOM     15  C   UNL     1       6.521   4.406   0.750  0.00  0.00    +0.000 A 
ATOM     16  C   UNL     1       5.702   3.276   0.849  0.00  0.00    +0.000 A 
ATOM     17  C   UNL     1       4.304   3.393   0.915  0.00  0.00    +0.000 A 
ATOM     18  H   UNL     1       2.442  -1.991  -0.323  0.00  0.00    +0.000 HD
ENDROOT
TORSDOF 0
