REMARK  Name = claudia.xyz
REMARK  1 active torsions:
REMARK  status: ('A' for Active; 'I' for Inactive)
REMARK    1  A    between atoms: C_8  and  C_9
REMARK                            x       y       z     vdW  Elec       q    Type
REMARK                         _______ _______ _______ _____ _____    ______ ____
ROOT
ATOM      1  O   UNL     1      -2.194  -1.647  -0.060  0.00  0.00    +0.000 OA
ATOM      2  C   UNL     1      -1.392  -0.886   0.457  0.00  0.00    +0.000 C 
ATOM      3  N   UNL     1      -0.230  -1.270   1.065  0.00  0.00    +0.000 N 
ATOM      4  C   UNL     1       0.577  -0.301   1.576  0.00  0.00    +0.000 C 
ATOM      5  S   UNL     1       2.019  -0.608   2.329  0.00  0.00    +0.000 S 
ATOM      6  S   UNL     1      -0.142   1.271   1.306  0.00  0.00    +0.000 S 
ATOM      7  C   UNL     1      -1.518   0.594   0.514  0.00  0.00    +0.000 C 
ATOM      8  C   UNL     1      -2.577   1.238   0.008  0.00  0.00    +0.000 C 
ATOM      9  H   UNL     1       0.017  -2.221   1.130  0.00  0.00    +0.000 HD
ENDROOT
BRANCH   8  10
ATOM     10  C   UNL     1      -2.769   2.693   0.047  0.00  0.00    +0.000 A 
ATOM     11  C   UNL     1      -2.273   3.458  -1.019  0.00  0.00    +0.000 A 
ATOM     12  C   UNL     1      -2.420   4.847  -1.019  0.00  0.00    +0.000 A 
ATOM     13  C   UNL     1      -3.063   5.477   0.045  0.00  0.00    +0.000 A 
ATOM     14 CL   UNL     1      -3.242   7.188   0.040  0.00  0.00    +0.000 Cl
ATOM     15  C   UNL     1      -3.562   4.733   1.112  0.00  0.00    +0.000 A 
ATOM     16  C   UNL     1      -3.415   3.344   1.113  0.00  0.00    +0.000 A 
ATOM     17 CL   UNL     1      -4.054   2.465   2.458  0.00  0.00    +0.000 Cl
ENDBRANCH   8  10
TORSDOF 1
