REMARK  Name = claudia.xyz
REMARK  1 active torsions:
REMARK  status: ('A' for Active; 'I' for Inactive)
REMARK    1  A    between atoms: C_8  and  C_9
REMARK                            x       y       z     vdW  Elec       q    Type
REMARK                         _______ _______ _______ _____ _____    ______ ____
ROOT
ATOM      1  O   UNL     1      -2.307  -1.300   0.019  0.00  0.00    +0.000 OA
ATOM      2  C   UNL     1      -1.288  -0.638  -0.002  0.00  0.00    +0.000 C 
ATOM      3  N   UNL     1       0.008  -1.080  -0.000  0.00  0.00    +0.000 N 
ATOM      4  C   UNL     1       0.888  -0.030  -0.018  0.00  0.00    +0.000 C 
ATOM      5  S   UNL     1       2.533  -0.145  -0.020  0.00  0.00    +0.000 S 
ATOM      6  N   UNL     1       0.162   1.144  -0.034  0.00  0.00    +0.000 N 
ATOM      7  C   UNL     1      -1.176   0.857  -0.029  0.00  0.00    +0.000 C 
ATOM      8  C   UNL     1      -2.229   1.679  -0.027  0.00  0.00    +0.000 C 
ATOM      9  H   UNL     1       0.273  -2.028   0.012  0.00  0.00    +0.000 HD
ATOM     10  H   UNL     1       0.547   2.050  -0.045  0.00  0.00    +0.000 HD
ENDROOT
BRANCH   8  11
ATOM     11  C   UNL     1      -2.186   3.106  -0.032  0.00  0.00    +0.000 A 
ATOM     12  C   UNL     1      -3.148   3.961   0.489  0.00  0.00    +0.000 A 
ATOM     13  C   UNL     1      -2.825   5.327   0.302  0.00  0.00    +0.000 A 
ATOM     14 BR   UNL     1      -3.942   6.713   0.923  0.00  0.00    +0.000 Br
ATOM     15  C   UNL     1      -1.645   5.516  -0.367  0.00  0.00    +0.000 A 
ATOM     16  S   UNL     1      -0.926   4.023  -0.778  0.00  0.00    +0.000 S 
ENDBRANCH   8  11
TORSDOF 1
