REMARK  Name = claudia.xyz
REMARK  3 active torsions:
REMARK  status: ('A' for Active; 'I' for Inactive)
REMARK    1  A    between atoms: C_1  and  O_2
REMARK    2  A    between atoms: O_2  and  C_3
REMARK    3  A    between atoms: C_7  and  C_8
REMARK                            x       y       z     vdW  Elec       q    Type
REMARK                         _______ _______ _______ _____ _____    ______ ____
ROOT
ATOM      1  C   UNL     1       6.589  -1.751   1.789  0.00  0.00    +0.000 C 
ATOM      2  C   UNL     1       7.635  -1.500   0.991  0.00  0.00    +0.000 C 
ATOM      3  S   UNL     1       7.642  -1.377  -0.734  0.00  0.00    +0.000 S 
ATOM      4  C   UNL     1       9.357  -1.054  -0.789  0.00  0.00    +0.000 C 
ATOM      5  S   UNL     1      10.265  -0.790  -2.147  0.00  0.00    +0.000 S 
ATOM      6  N   UNL     1       9.864  -1.051   0.474  0.00  0.00    +0.000 N 
ATOM      7  C   UNL     1       9.009  -1.287   1.515  0.00  0.00    +0.000 C 
ATOM      8  O   UNL     1       9.335  -1.319   2.690  0.00  0.00    +0.000 OA
ATOM      9  H   UNL     1      10.821  -0.884   0.634  0.00  0.00    +0.000 HD
ENDROOT
BRANCH   1  14
ATOM     10  C   UNL     1       3.148  -1.052   0.429  0.00  0.00    +0.000 A 
ATOM     11  C   UNL     1       2.712  -2.344   0.133  0.00  0.00    +0.000 A 
ATOM     12  C   UNL     1       3.527  -3.443   0.421  0.00  0.00    +0.000 A 
ATOM     13  C   UNL     1       4.784  -3.254   0.995  0.00  0.00    +0.000 A 
ATOM     14  C   UNL     1       5.229  -1.963   1.289  0.00  0.00    +0.000 A 
ATOM     15  C   UNL     1       4.400  -0.868   1.021  0.00  0.00    +0.000 A 
BRANCH  10  17
ATOM     16  C   UNL     1       1.310  -0.004  -0.647  0.00  0.00    +0.000 C 
ATOM     17  O   UNL     1       2.456   0.103   0.189  0.00  0.00    +0.000 OA
ENDBRANCH  10  17
ENDBRANCH   1  14
TORSDOF 2
