REMARK  Name = claudia.xyz
REMARK  1 active torsions:
REMARK  status: ('A' for Active; 'I' for Inactive)
REMARK    1  A    between atoms: C_8  and  C_9
REMARK                            x       y       z     vdW  Elec       q    Type
REMARK                         _______ _______ _______ _____ _____    ______ ____
ROOT
ATOM      1  O   UNL     1      -2.246  -1.417  -0.036  0.00  0.00    +0.000 OA
ATOM      2  C   UNL     1      -1.270  -0.694  -0.013  0.00  0.00    +0.000 C 
ATOM      3  N   UNL     1       0.052  -1.054   0.013  0.00  0.00    +0.000 N 
ATOM      4  C   UNL     1       0.866   0.049   0.014  0.00  0.00    +0.000 C 
ATOM      5  S   UNL     1       2.514   0.037   0.039  0.00  0.00    +0.000 S 
ATOM      6  N   UNL     1       0.069   1.178  -0.012  0.00  0.00    +0.000 N 
ATOM      7  C   UNL     1      -1.247   0.803  -0.025  0.00  0.00    +0.000 C 
ATOM      8  C   UNL     1      -2.328   1.587  -0.043  0.00  0.00    +0.000 C 
ATOM      9  H   UNL     1       0.375  -1.983   0.030  0.00  0.00    +0.000 HD
ATOM     10  H   UNL     1       0.396   2.106  -0.020  0.00  0.00    +0.000 HD
ENDROOT
BRANCH   8  11
ATOM     11  C   UNL     1      -2.270   3.052  -0.052  0.00  0.00    +0.000 A 
ATOM     12  C   UNL     1      -2.222   3.706  -1.291  0.00  0.00    +0.000 A 
ATOM     13  C   UNL     1      -2.155   5.100  -1.353  0.00  0.00    +0.000 A 
ATOM     14  C   UNL     1      -2.136   5.846  -0.175  0.00  0.00    +0.000 A 
ATOM     15 CL   UNL     1      -2.054   7.562  -0.255  0.00  0.00    +0.000 Cl
ATOM     16  C   UNL     1      -2.181   5.213   1.064  0.00  0.00    +0.000 A 
ATOM     17  C   UNL     1      -2.247   3.819   1.126  0.00  0.00    +0.000 A 
ATOM     18 CL   UNL     1      -2.296   3.082   2.689  0.00  0.00    +0.000 Cl
ENDBRANCH   8  11
TORSDOF 1
