REMARK  Name = claudia.xyz
REMARK  2 active torsions:
REMARK  status: ('A' for Active; 'I' for Inactive)
REMARK    1  A    between atoms: C_8  and  C_9
REMARK    2  A    between atoms: C_13  and  O_14
REMARK                            x       y       z     vdW  Elec       q    Type
REMARK                         _______ _______ _______ _____ _____    ______ ____
ROOT
ATOM      1  O   UNL     1      -2.135  -1.415  -0.012  0.00  0.00    +0.000 OA
ATOM      2  C   UNL     1      -1.372  -0.658   0.554  0.00  0.00    +0.000 C 
ATOM      3  N   UNL     1      -0.302  -0.973   1.350  0.00  0.00    +0.000 N 
ATOM      4  C   UNL     1       0.329   0.156   1.804  0.00  0.00    +0.000 C 
ATOM      5  S   UNL     1       1.659   0.196   2.778  0.00  0.00    +0.000 S 
ATOM      6  N   UNL     1      -0.339   1.257   1.303  0.00  0.00    +0.000 N 
ATOM      7  C   UNL     1      -1.388   0.839   0.530  0.00  0.00    +0.000 C 
ATOM      8  C   UNL     1      -2.265   1.592  -0.138  0.00  0.00    +0.000 C 
ATOM      9  H   UNL     1      -0.022  -1.892   1.567  0.00  0.00    +0.000 HD
ATOM     10  H   UNL     1      -0.097   2.195   1.476  0.00  0.00    +0.000 HD
ENDROOT
BRANCH   8  11
ATOM     11  C   UNL     1      -2.235   3.054  -0.140  0.00  0.00    +0.000 A 
ATOM     12  C   UNL     1      -1.707   3.737  -1.241  0.00  0.00    +0.000 A 
ATOM     13  C   UNL     1      -1.656   5.134  -1.243  0.00  0.00    +0.000 A 
ATOM     14  C   UNL     1      -2.134   5.854  -0.148  0.00  0.00    +0.000 A 
ATOM     15  C   UNL     1      -2.659   5.168   0.943  0.00  0.00    +0.000 A 
ATOM     16  C   UNL     1      -2.712   3.778   0.957  0.00  0.00    +0.000 A 
BRANCH  15  17
ATOM     17  O   UNL     1      -3.136   5.831   2.035  0.00  0.00    +0.000 OA
ATOM     18  H   UNL     1      -3.116   6.768   2.060  0.00  0.00    +0.000 HD
ENDBRANCH  15  17
ENDBRANCH   8  11
TORSDOF 2
