REMARK  Name = claudia.xyz
REMARK  3 active torsions:
REMARK  status: ('A' for Active; 'I' for Inactive)
REMARK    1  A    between atoms: C_8  and  C_9
REMARK    2  A    between atoms: C_12  and  O_13
REMARK    3  A    between atoms: C_14  and  O_15
REMARK                            x       y       z     vdW  Elec       q    Type
REMARK                         _______ _______ _______ _____ _____    ______ ____
ROOT
ATOM      1  C   UNL     1      -2.760   2.739   0.191  0.00  0.00    +0.000 A 
ATOM      2  C   UNL     1      -2.050   3.517  -0.738  0.00  0.00    +0.000 A 
ATOM      3  C   UNL     1      -2.210   4.906  -0.776  0.00  0.00    +0.000 A 
ATOM      4  C   UNL     1      -3.088   5.510   0.115  0.00  0.00    +0.000 A 
ATOM      5  C   UNL     1      -3.801   4.739   1.030  0.00  0.00    +0.000 A 
ATOM      6  C   UNL     1      -3.649   3.360   1.075  0.00  0.00    +0.000 A 
ENDROOT
BRANCH   1  14
ATOM      7  O   UNL     1      -2.379  -1.618   0.308  0.00  0.00    +0.000 OA
ATOM      8  C   UNL     1      -1.459  -0.873   0.605  0.00  0.00    +0.000 C 
ATOM      9  N   UNL     1      -0.222  -1.288   1.012  0.00  0.00    +0.000 N 
ATOM     10  C   UNL     1       0.709  -0.339   1.303  0.00  0.00    +0.000 C 
ATOM     11  S   UNL     1       2.249  -0.685   1.802  0.00  0.00    +0.000 S 
ATOM     12  S   UNL     1       0.027   1.253   1.060  0.00  0.00    +0.000 S 
ATOM     13  C   UNL     1      -1.502   0.614   0.575  0.00  0.00    +0.000 C 
ATOM     14  C   UNL     1      -2.611   1.281   0.232  0.00  0.00    +0.000 C 
ATOM     15  H   UNL     1      -0.011  -2.246   1.094  0.00  0.00    +0.000 HD
ENDBRANCH   1  14
BRANCH   4  16
ATOM     16  O   UNL     1      -3.289   6.862   0.130  0.00  0.00    +0.000 OA
ATOM     17  H   UNL     1      -2.826   7.411  -0.471  0.00  0.00    +0.000 HD
ENDBRANCH   4  16
BRANCH   5  18
ATOM     18  O   UNL     1      -4.666   5.342   1.900  0.00  0.00    +0.000 OA
ATOM     19  H   UNL     1      -4.778   6.272   1.880  0.00  0.00    +0.000 HD
ENDBRANCH   5  18
TORSDOF 3
