REMARK  Name = claudia.xyz
REMARK  1 active torsions:
REMARK  status: ('A' for Active; 'I' for Inactive)
REMARK    1  A    between atoms: C_7  and  C_8
REMARK                            x       y       z     vdW  Elec       q    Type
REMARK                         _______ _______ _______ _____ _____    ______ ____
ROOT
ATOM      1  C   UNL     1       1.995   2.979   0.098  0.00  0.00    +0.000 A 
ATOM      2  C   UNL     1       1.343   3.675   1.122  0.00  0.00    +0.000 A 
ATOM      3  F   UNL     1       0.740   2.998   2.111  0.00  0.00    +0.000 F 
ATOM      4  C   UNL     1       1.311   5.066   1.130  0.00  0.00    +0.000 A 
ATOM      5  F   UNL     1       0.683   5.715   2.121  0.00  0.00    +0.000 F 
ATOM      6  C   UNL     1       1.929   5.781   0.114  0.00  0.00    +0.000 A 
ATOM      7  F   UNL     1       1.900   7.121   0.123  0.00  0.00    +0.000 F 
ATOM      8  C   UNL     1       2.580   5.107  -0.910  0.00  0.00    +0.000 A 
ATOM      9  F   UNL     1       3.179   5.796  -1.891  0.00  0.00    +0.000 F 
ATOM     10  C   UNL     1       2.612   3.716  -0.918  0.00  0.00    +0.000 A 
ATOM     11  F   UNL     1       3.244   3.079  -1.916  0.00  0.00    +0.000 F 
ENDROOT
BRANCH   1  18
ATOM     12  O   UNL     1      -1.856  -0.695  -2.253  0.00  0.00    +0.000 OA
ATOM     13  C   UNL     1      -0.843  -0.390  -1.648  0.00  0.00    +0.000 C 
ATOM     14  N   UNL     1       0.064  -1.254  -1.125  0.00  0.00    +0.000 N 
ATOM     15  C   UNL     1       1.144  -0.736  -0.476  0.00  0.00    +0.000 C 
ATOM     16  O   UNL     1       2.033  -1.394   0.040  0.00  0.00    +0.000 OA
ATOM     17  C   UNL     1       1.075   0.749  -0.491  0.00  0.00    +0.000 C 
ATOM     18  C   UNL     1       2.014   1.513   0.080  0.00  0.00    +0.000 C 
ATOM     19  S   UNL     1      -0.345   1.260  -1.325  0.00  0.00    +0.000 S 
ATOM     20  H   UNL     1      -0.055  -2.227  -1.213  0.00  0.00    +0.000 HD
ENDBRANCH   1  18
TORSDOF 1
