REMARK  Name = claudia.xyz
REMARK  2 active torsions:
REMARK  status: ('A' for Active; 'I' for Inactive)
REMARK    1  A    between atoms: C_7  and  C_8
REMARK    2  A    between atoms: C_12  and  O_13
REMARK                            x       y       z     vdW  Elec       q    Type
REMARK                         _______ _______ _______ _____ _____    ______ ____
ROOT
ATOM      1  O   UNL     1       5.937  -0.694   2.345  0.00  0.00    +0.000 OA
ATOM      2  C   UNL     1       4.927  -0.394   1.732  0.00  0.00    +0.000 C 
ATOM      3  N   UNL     1       4.053  -1.265   1.167  0.00  0.00    +0.000 N 
ATOM      4  C   UNL     1       2.961  -0.757   0.531  0.00  0.00    +0.000 C 
ATOM      5  O   UNL     1       2.092  -1.427  -0.004  0.00  0.00    +0.000 OA
ATOM      6  C   UNL     1       2.988   0.727   0.594  0.00  0.00    +0.000 C 
ATOM      7  C   UNL     1       2.031   1.480   0.037  0.00  0.00    +0.000 C 
ATOM      8  S   UNL     1       4.386   1.249   1.460  0.00  0.00    +0.000 S 
ATOM      9  H   UNL     1       4.204  -2.237   1.215  0.00  0.00    +0.000 HD
ENDROOT
BRANCH   7  10
ATOM     10  C   UNL     1       1.998   2.943   0.057  0.00  0.00    +0.000 A 
ATOM     11  C   UNL     1       1.341   3.617   1.093  0.00  0.00    +0.000 A 
ATOM     12  C   UNL     1       1.315   5.014   1.116  0.00  0.00    +0.000 A 
ATOM     13  C   UNL     1       1.944   5.743   0.106  0.00  0.00    +0.000 A 
ATOM     14  C   UNL     1       2.595   5.066  -0.921  0.00  0.00    +0.000 A 
ATOM     15  C   UNL     1       2.627   3.675  -0.954  0.00  0.00    +0.000 A 
BRANCH  14  16
ATOM     16  O   UNL     1       3.223   5.738  -1.928  0.00  0.00    +0.000 OA
ATOM     17  H   UNL     1       3.656   5.263  -2.610  0.00  0.00    +0.000 HD
ENDBRANCH  14  16
ENDBRANCH   7  10
TORSDOF 2
