REMARK  Name = claudia.xyz
REMARK  2 active torsions:
REMARK  status: ('A' for Active; 'I' for Inactive)
REMARK    1  A    between atoms: C_1  and  C_2
REMARK    2  A    between atoms: C_2  and  C_10
REMARK                            x       y       z     vdW  Elec       q    Type
REMARK                         _______ _______ _______ _____ _____    ______ ____
ROOT
ATOM      1  C   UNL     1       1.491   0.160   0.905  0.00  0.00    +0.000 C 
ATOM      2  C   UNL     1       2.686   0.010   0.001  0.00  0.00    +0.000 C 
ATOM      3  C   UNL     1       3.093   0.949  -0.875  0.00  0.00    +0.000 C 
ATOM      4  S   UNL     1       4.459   0.839  -1.943  0.00  0.00    +0.000 S 
ATOM      5  C   UNL     1       4.175   2.422  -2.625  0.00  0.00    +0.000 C 
ATOM      6  O   UNL     1       4.857   2.931  -3.497  0.00  0.00    +0.000 OA
ATOM      7  N   UNL     1       3.089   2.982  -2.040  0.00  0.00    +0.000 N 
ATOM      8  C   UNL     1       2.422   2.266  -1.091  0.00  0.00    +0.000 C 
ATOM      9  O   UNL     1       1.419   2.668  -0.524  0.00  0.00    +0.000 OA
ATOM     10  H   UNL     1       2.788   3.885  -2.294  0.00  0.00    +0.000 HD
ENDROOT
BRANCH   2  11
ATOM     11  C   UNL     1       3.393  -1.277   0.147  0.00  0.00    +0.000 A 
ATOM     12  C   UNL     1       2.965  -2.397  -0.571  0.00  0.00    +0.000 A 
ATOM     13  C   UNL     1       3.633  -3.616  -0.435  0.00  0.00    +0.000 A 
ATOM     14  C   UNL     1       4.738  -3.736   0.422  0.00  0.00    +0.000 A 
ATOM     15  C   UNL     1       5.420  -4.955   0.569  0.00  0.00    +0.000 A 
ATOM     16  C   UNL     1       6.517  -5.060   1.424  0.00  0.00    +0.000 A 
ATOM     17  C   UNL     1       6.948  -3.949   2.143  0.00  0.00    +0.000 A 
ATOM     18  C   UNL     1       6.281  -2.730   2.009  0.00  0.00    +0.000 A 
ATOM     19  C   UNL     1       5.175  -2.607   1.152  0.00  0.00    +0.000 A 
ATOM     20  C   UNL     1       4.494  -1.387   1.006  0.00  0.00    +0.000 A 
ENDBRANCH   2  11
TORSDOF 1
