REMARK  Name = claudia.xyz
REMARK  4 active torsions:
REMARK  status: ('A' for Active; 'I' for Inactive)
REMARK    1  A    between atoms: C_1  and  C_2
REMARK    2  A    between atoms: C_2  and  C_3
REMARK    3  A    between atoms: C_3  and  C_4
REMARK    4  A    between atoms: C_5  and  C_6
REMARK                            x       y       z     vdW  Elec       q    Type
REMARK                         _______ _______ _______ _____ _____    ______ ____
ROOT
ATOM      1  C   UNL     1       6.746   0.618  -2.583  0.00  0.00    +0.000 C 
ATOM      2  S   UNL     1       7.359  -0.613  -3.777  0.00  0.00    +0.000 S 
ATOM      3  C   UNL     1       8.247   0.566  -4.699  0.00  0.00    +0.000 C 
ATOM      4  S   UNL     1       9.171   0.262  -6.039  0.00  0.00    +0.000 S 
ATOM      5  N   UNL     1       8.083   1.807  -4.176  0.00  0.00    +0.000 N 
ATOM      6  C   UNL     1       7.292   1.956  -3.070  0.00  0.00    +0.000 C 
ATOM      7  O   UNL     1       7.069   3.048  -2.561  0.00  0.00    +0.000 OA
ATOM      8  H   UNL     1       8.525   2.586  -4.584  0.00  0.00    +0.000 HD
ENDROOT
BRANCH   1  10
ATOM      9  C   UNL     1       4.508   0.307  -1.485  0.00  0.00    +0.000 C 
ATOM     10  C   UNL     1       5.246   0.607  -2.568  0.00  0.00    +0.000 C 
BRANCH   9  11
ATOM     11  C   UNL     1       3.005   0.305  -1.471  0.00  0.00    +0.000 C 
BRANCH  11  13
ATOM     12  C   UNL     1       0.939   1.331  -0.455  0.00  0.00    +0.000 C 
ATOM     13  C   UNL     1       2.460   1.337  -0.483  0.00  0.00    +0.000 C 
ENDBRANCH  11  13
ENDBRANCH   9  11
ENDBRANCH   1  10
TORSDOF 3
