REMARK  Name = claudia.xyz
REMARK  4 active torsions:
REMARK  status: ('A' for Active; 'I' for Inactive)
REMARK    1  A    between atoms: C_7  and  C_8
REMARK    2  A    between atoms: C_8  and  C_9
REMARK    3  A    between atoms: C_12  and  O_13
REMARK    4  A    between atoms: C_14  and  O_15
REMARK                            x       y       z     vdW  Elec       q    Type
REMARK                         _______ _______ _______ _____ _____    ______ ____
ROOT
ATOM      1  C   UNL     1       1.896   1.793  -1.266  0.00  0.00    +0.000 C 
ENDROOT
BRANCH   1   8
ATOM      2  O   UNL     1      -0.822   0.669  -0.429  0.00  0.00    +0.000 OA
ATOM      3  C   UNL     1      -0.085   1.385   0.231  0.00  0.00    +0.000 C 
ATOM      4  N   UNL     1      -0.499   2.281   1.173  0.00  0.00    +0.000 N 
ATOM      5  C   UNL     1       0.558   2.929   1.715  0.00  0.00    +0.000 C 
ATOM      6  S   UNL     1       0.490   4.075   2.895  0.00  0.00    +0.000 S 
ATOM      7  N   UNL     1       1.709   2.475   1.123  0.00  0.00    +0.000 N 
ATOM      8  C   UNL     1       1.443   1.436   0.146  0.00  0.00    +0.000 C 
ATOM      9  H   UNL     1      -1.439   2.436   1.424  0.00  0.00    +0.000 HD
ATOM     10  H   UNL     1       2.609   2.814   1.336  0.00  0.00    +0.000 HD
ENDBRANCH   1   8
BRANCH   1  11
ATOM     11  C   UNL     1       3.399   1.903  -1.377  0.00  0.00    +0.000 A 
ATOM     12  C   UNL     1       4.021   3.163  -1.407  0.00  0.00    +0.000 A 
ATOM     13  C   UNL     1       5.413   3.272  -1.488  0.00  0.00    +0.000 A 
ATOM     14  C   UNL     1       6.181   2.116  -1.535  0.00  0.00    +0.000 A 
ATOM     15  C   UNL     1       5.571   0.865  -1.503  0.00  0.00    +0.000 A 
ATOM     16  C   UNL     1       4.190   0.747  -1.426  0.00  0.00    +0.000 A 
BRANCH  14  17
ATOM     17  O   UNL     1       7.546   2.156  -1.613  0.00  0.00    +0.000 OA
ATOM     18  H   UNL     1       7.990   2.981  -1.636  0.00  0.00    +0.000 HD
ENDBRANCH  14  17
BRANCH  15  19
ATOM     19  O   UNL     1       6.333  -0.267  -1.545  0.00  0.00    +0.000 OA
ATOM     20  H   UNL     1       7.267  -0.202  -1.597  0.00  0.00    +0.000 HD
ENDBRANCH  15  19
ENDBRANCH   1  11
TORSDOF 4
