REMARK  Name = claudia.xyz
REMARK  1 active torsions:
REMARK  status: ('A' for Active; 'I' for Inactive)
REMARK    1  A    between atoms: C_8  and  C_9
REMARK                            x       y       z     vdW  Elec       q    Type
REMARK                         _______ _______ _______ _____ _____    ______ ____
ROOT
ATOM      1  O   UNL     1      -2.188  -1.536   0.584  0.00  0.00    +0.000 OA
ATOM      2  C   UNL     1      -1.260  -0.829   0.228  0.00  0.00    +0.000 C 
ATOM      3  N   UNL     1       0.002  -1.282  -0.039  0.00  0.00    +0.000 N 
ATOM      4  C   UNL     1       0.932  -0.380  -0.453  0.00  0.00    +0.000 C 
ATOM      5  S   UNL     1       2.496  -0.776  -0.825  0.00  0.00    +0.000 S 
ATOM      6  S   UNL     1       0.216   1.213  -0.533  0.00  0.00    +0.000 S 
ATOM      7  C   UNL     1      -1.323   0.640   0.001  0.00  0.00    +0.000 C 
ATOM      8  C   UNL     1      -2.441   1.336   0.241  0.00  0.00    +0.000 C 
ATOM      9  H   UNL     1       0.231  -2.234   0.066  0.00  0.00    +0.000 HD
ENDROOT
BRANCH   8  10
ATOM     10  C   UNL     1      -2.643   2.777   0.100  0.00  0.00    +0.000 A 
ATOM     11  C   UNL     1      -2.362   3.469  -1.074  0.00  0.00    +0.000 A 
ATOM     12  C   UNL     1      -2.630   4.835  -1.126  0.00  0.00    +0.000 A 
ATOM     13  C   UNL     1      -3.180   5.464  -0.017  0.00  0.00    +0.000 A 
ATOM     14  C   UNL     1      -3.449   4.694   1.101  0.00  0.00    +0.000 A 
ATOM     15  N   UNL     1      -3.203   3.368   1.179  0.00  0.00    +0.000 NA
ENDBRANCH   8  10
TORSDOF 1
