REMARK  Name = claudia.xyz
REMARK  1 active torsions:
REMARK  status: ('A' for Active; 'I' for Inactive)
REMARK    1  A    between atoms: C_8  and  C_9
REMARK                            x       y       z     vdW  Elec       q    Type
REMARK                         _______ _______ _______ _____ _____    ______ ____
ROOT
ATOM      1  O   UNL     1      -2.605  -1.306  -0.211  0.00  0.00    +0.000 OA
ATOM      2  C   UNL     1      -2.593  -0.661   0.820  0.00  0.00    +0.000 C 
ATOM      3  N   UNL     1      -2.637  -1.125   2.108  0.00  0.00    +0.000 N 
ATOM      4  C   UNL     1      -2.567  -0.094   3.007  0.00  0.00    +0.000 C 
ATOM      5  S   UNL     1      -2.563  -0.241   4.649  0.00  0.00    +0.000 S 
ATOM      6  N   UNL     1      -2.493   1.092   2.303  0.00  0.00    +0.000 N 
ATOM      7  C   UNL     1      -2.508   0.828   0.960  0.00  0.00    +0.000 C 
ATOM      8  C   UNL     1      -2.433   1.673  -0.072  0.00  0.00    +0.000 C 
ATOM      9  H   UNL     1      -2.709  -2.076   2.355  0.00  0.00    +0.000 HD
ATOM     10  H   UNL     1      -2.439   1.989   2.705  0.00  0.00    +0.000 HD
ENDROOT
BRANCH   8  11
ATOM     11  C   UNL     1      -2.372   3.081   0.066  0.00  0.00    +0.000 A 
ATOM     12  C   UNL     1      -2.900   4.008   0.944  0.00  0.00    +0.000 A 
ATOM     13  C   UNL     1      -2.472   5.302   0.538  0.00  0.00    +0.000 A 
ATOM     14  C   UNL     1      -2.681   6.604   1.034  0.00  0.00    +0.000 A 
ATOM     15  C   UNL     1      -2.098   7.690   0.370  0.00  0.00    +0.000 A 
ATOM     16  C   UNL     1      -1.321   7.493  -0.769  0.00  0.00    +0.000 A 
ATOM     17  C   UNL     1      -1.103   6.210  -1.281  0.00  0.00    +0.000 A 
ATOM     18  C   UNL     1      -1.693   5.136  -0.604  0.00  0.00    +0.000 A 
ATOM     19  N   UNL     1      -1.660   3.786  -0.877  0.00  0.00    +0.000 N 
ATOM     20  H   UNL     1      -1.192   3.382  -1.643  0.00  0.00    +0.000 HD
ENDBRANCH   8  11
TORSDOF 1
