REMARK  Name = claudia.xyz
REMARK  1 active torsions:
REMARK  status: ('A' for Active; 'I' for Inactive)
REMARK    1  A    between atoms: C_8  and  C_9
REMARK                            x       y       z     vdW  Elec       q    Type
REMARK                         _______ _______ _______ _____ _____    ______ ____
ROOT
ATOM      1  C   UNL     1      -2.241   3.096  -0.089  0.00  0.00    +0.000 A 
ATOM      2  C   UNL     1      -2.217   3.772  -1.314  0.00  0.00    +0.000 A 
ATOM      3  F   UNL     1      -2.246   3.078  -2.461  0.00  0.00    +0.000 F 
ATOM      4  C   UNL     1      -2.159   5.162  -1.360  0.00  0.00    +0.000 A 
ATOM      5  F   UNL     1      -2.133   5.790  -2.544  0.00  0.00    +0.000 F 
ATOM      6  C   UNL     1      -2.123   5.896  -0.183  0.00  0.00    +0.000 A 
ATOM      7  F   UNL     1      -2.063   7.234  -0.228  0.00  0.00    +0.000 F 
ATOM      8  C   UNL     1      -2.143   5.242   1.041  0.00  0.00    +0.000 A 
ATOM      9  F   UNL     1      -2.102   5.948   2.179  0.00  0.00    +0.000 F 
ATOM     10  C   UNL     1      -2.201   3.852   1.088  0.00  0.00    +0.000 A 
ATOM     11  F   UNL     1      -2.214   3.236   2.279  0.00  0.00    +0.000 F 
ENDROOT
BRANCH   1  19
ATOM     12  O   UNL     1      -2.281  -1.361   0.054  0.00  0.00    +0.000 OA
ATOM     13  C   UNL     1      -1.289  -0.660   0.031  0.00  0.00    +0.000 C 
ATOM     14  N   UNL     1       0.025  -1.048   0.042  0.00  0.00    +0.000 N 
ATOM     15  C   UNL     1       0.862   0.036   0.007  0.00  0.00    +0.000 C 
ATOM     16  S   UNL     1       2.509  -0.009   0.006  0.00  0.00    +0.000 S 
ATOM     17  N   UNL     1       0.089   1.183  -0.028  0.00  0.00    +0.000 N 
ATOM     18  C   UNL     1      -1.234   0.837  -0.016  0.00  0.00    +0.000 C 
ATOM     19  C   UNL     1      -2.304   1.635  -0.040  0.00  0.00    +0.000 C 
ATOM     20  H   UNL     1       0.328  -1.984   0.071  0.00  0.00    +0.000 HD
ATOM     21  H   UNL     1       0.437   2.103  -0.057  0.00  0.00    +0.000 HD
ENDBRANCH   1  19
TORSDOF 1
