REMARK  Name = claudia.xyz
REMARK  5 active torsions:
REMARK  status: ('A' for Active; 'I' for Inactive)
REMARK    1  A    between atoms: C_1  and  O_2
REMARK    2  A    between atoms: O_2  and  C_3
REMARK    3  A    between atoms: C_6  and  C_7
REMARK    4  A    between atoms: C_16  and  O_17
REMARK    5  A    between atoms: O_17  and  C_18
REMARK                            x       y       z     vdW  Elec       q    Type
REMARK                         _______ _______ _______ _____ _____    ______ ____
ROOT
ATOM      1  C   UNL     1       2.999  -0.406  -1.108  0.00  0.00    +0.000 A 
ATOM      2  C   UNL     1       2.601  -0.131  -2.422  0.00  0.00    +0.000 A 
ATOM      3  C   UNL     1       3.407  -0.499  -3.507  0.00  0.00    +0.000 A 
ATOM      4  C   UNL     1       4.626  -1.145  -3.295  0.00  0.00    +0.000 A 
ATOM      5  C   UNL     1       5.030  -1.419  -1.987  0.00  0.00    +0.000 A 
ATOM      6  C   UNL     1       4.214  -1.081  -0.900  0.00  0.00    +0.000 A 
ENDROOT
BRANCH   4   7
ATOM      7  C   UNL     1       5.497  -1.516  -4.413  0.00  0.00    +0.000 C 
ATOM      8  C   UNL     1       5.235  -2.454  -5.332  0.00  0.00    +0.000 C 
ATOM      9  S   UNL     1       3.847  -3.470  -5.458  0.00  0.00    +0.000 S 
ATOM     10  C   UNL     1       4.476  -4.288  -6.874  0.00  0.00    +0.000 C 
ATOM     11  O   UNL     1       3.893  -5.177  -7.471  0.00  0.00    +0.000 OA
ATOM     12  N   UNL     1       5.691  -3.778  -7.196  0.00  0.00    +0.000 N 
ATOM     13  C   UNL     1       6.192  -2.774  -6.423  0.00  0.00    +0.000 C 
ATOM     14  O   UNL     1       7.266  -2.224  -6.608  0.00  0.00    +0.000 OA
ATOM     15  H   UNL     1       6.196  -4.123  -7.968  0.00  0.00    +0.000 HD
ENDBRANCH   4   7
BRANCH   1  17
ATOM     16  C   UNL     1       1.116   0.750  -0.195  0.00  0.00    +0.000 C 
ATOM     17  O   UNL     1       2.285  -0.035  -0.000  0.00  0.00    +0.000 OA
ENDBRANCH   1  17
BRANCH   6  18
ATOM     18  O   UNL     1       4.751  -1.409   0.321  0.00  0.00    +0.000 OA
ATOM     19  C   UNL     1       3.827  -1.968   1.250  0.00  0.00    +0.000 C 
ENDBRANCH   6  18
TORSDOF 3
