REMARK  Name = claudia.xyz
REMARK  2 active torsions:
REMARK  status: ('A' for Active; 'I' for Inactive)
REMARK    1  A    between atoms: C_1  and  C_2
REMARK    2  A    between atoms: C_2  and  C_10
REMARK                            x       y       z     vdW  Elec       q    Type
REMARK                         _______ _______ _______ _____ _____    ______ ____
ROOT
ATOM      1  C   UNL     1       1.041  -0.049   0.034  0.00  0.00    +0.000 C 
ATOM      2  C   UNL     1       2.531   0.151   0.000  0.00  0.00    +0.000 C 
ATOM      3  C   UNL     1       3.189   1.254   0.395  0.00  0.00    +0.000 C 
ATOM      4  N   UNL     1       4.553   1.425   0.368  0.00  0.00    +0.000 N 
ATOM      5  C   UNL     1       4.883   2.676   0.844  0.00  0.00    +0.000 C 
ATOM      6  S   UNL     1       6.409   3.283   0.978  0.00  0.00    +0.000 S 
ATOM      7  N   UNL     1       3.728   3.324   1.184  0.00  0.00    +0.000 N 
ATOM      8  C   UNL     1       2.629   2.541   0.944  0.00  0.00    +0.000 C 
ATOM      9  O   UNL     1       1.467   2.842   1.132  0.00  0.00    +0.000 OA
ATOM     10  H   UNL     1       5.200   0.752   0.055  0.00  0.00    +0.000 HD
ATOM     11  H   UNL     1       3.691   4.236   1.553  0.00  0.00    +0.000 HD
ENDROOT
BRANCH   2  12
ATOM     12  C   UNL     1       3.278  -1.008  -0.523  0.00  0.00    +0.000 A 
ATOM     13  C   UNL     1       3.717  -2.015   0.348  0.00  0.00    +0.000 A 
ATOM     14  C   UNL     1       4.441  -3.101  -0.146  0.00  0.00    +0.000 A 
ATOM     15  C   UNL     1       4.725  -3.175  -1.505  0.00  0.00    +0.000 A 
ATOM     16  F   UNL     1       5.421  -4.217  -1.977  0.00  0.00    +0.000 F 
ATOM     17  C   UNL     1       4.300  -2.183  -2.381  0.00  0.00    +0.000 A 
ATOM     18  C   UNL     1       3.576  -1.095  -1.891  0.00  0.00    +0.000 A 
ENDBRANCH   2  12
TORSDOF 1
