REMARK  Name = claudia.xyz
REMARK  3 active torsions:
REMARK  status: ('A' for Active; 'I' for Inactive)
REMARK    1  A    between atoms: C_1  and  O_2
REMARK    2  A    between atoms: O_2  and  C_3
REMARK    3  A    between atoms: C_6  and  C_7
REMARK                            x       y       z     vdW  Elec       q    Type
REMARK                         _______ _______ _______ _____ _____    ______ ____
ROOT
ATOM      1  C   UNL     1       5.323   4.629   1.161  0.00  0.00    +0.000 C 
ATOM      2  C   UNL     1       6.325   4.661   2.043  0.00  0.00    +0.000 C 
ATOM      3  N   UNL     1       6.819   3.632   2.791  0.00  0.00    +0.000 N 
ATOM      4  C   UNL     1       7.859   4.086   3.582  0.00  0.00    +0.000 C 
ATOM      5  O   UNL     1       8.510   3.416   4.364  0.00  0.00    +0.000 OA
ATOM      6  N   UNL     1       8.024   5.423   3.327  0.00  0.00    +0.000 N 
ATOM      7  C   UNL     1       7.129   5.870   2.396  0.00  0.00    +0.000 C 
ATOM      8  O   UNL     1       7.005   6.994   1.952  0.00  0.00    +0.000 OA
ATOM      9  H   UNL     1       6.485   2.706   2.771  0.00  0.00    +0.000 HD
ATOM     10  H   UNL     1       8.702   5.990   3.760  0.00  0.00    +0.000 HD
ENDROOT
BRANCH   1  14
ATOM     11  C   UNL     1       3.126   1.073   0.290  0.00  0.00    +0.000 A 
ATOM     12  C   UNL     1       2.701   1.930   1.306  0.00  0.00    +0.000 A 
ATOM     13  C   UNL     1       3.419   3.098   1.586  0.00  0.00    +0.000 A 
ATOM     14  C   UNL     1       4.565   3.418   0.852  0.00  0.00    +0.000 A 
ATOM     15  C   UNL     1       4.993   2.559  -0.162  0.00  0.00    +0.000 A 
ATOM     16  C   UNL     1       4.274   1.393  -0.438  0.00  0.00    +0.000 A 
BRANCH  11  18
ATOM     17  C   UNL     1       1.322  -0.446   0.598  0.00  0.00    +0.000 C 
ATOM     18  O   UNL     1       2.520  -0.094  -0.084  0.00  0.00    +0.000 OA
ENDBRANCH  11  18
ENDBRANCH   1  14
TORSDOF 2
