REMARK  Name = claudia.xyz
REMARK  2 active torsions:
REMARK  status: ('A' for Active; 'I' for Inactive)
REMARK    1  A    between atoms: C_6  and  C_7
REMARK    2  A    between atoms: C_7  and  C_8
REMARK                            x       y       z     vdW  Elec       q    Type
REMARK                         _______ _______ _______ _____ _____    ______ ____
ROOT
ATOM      1  C   UNL     1      -1.032  -2.202   0.971  0.00  0.00    +0.000 C 
ENDROOT
BRANCH   1   2
ATOM      2  C   UNL     1      -0.511  -3.604   1.008  0.00  0.00    +0.000 A 
ATOM      3  C   UNL     1      -1.236  -4.753   0.761  0.00  0.00    +0.000 A 
ATOM      4  N   UNL     1      -0.395  -5.826   0.873  0.00  0.00    +0.000 N 
ATOM      5  C   UNL     1       0.874  -5.405   1.195  0.00  0.00    +0.000 A 
ATOM      6  C   UNL     1       2.044  -6.145   1.402  0.00  0.00    +0.000 A 
ATOM      7  C   UNL     1       3.209  -5.441   1.717  0.00  0.00    +0.000 A 
ATOM      8  C   UNL     1       3.201  -4.052   1.821  0.00  0.00    +0.000 A 
ATOM      9  C   UNL     1       2.022  -3.327   1.611  0.00  0.00    +0.000 A 
ATOM     10  C   UNL     1       0.833  -4.014   1.290  0.00  0.00    +0.000 A 
ATOM     11  H   UNL     1      -0.660  -6.765   0.743  0.00  0.00    +0.000 HD
ENDBRANCH   1   2
BRANCH   1  17
ATOM     12  O   UNL     1      -2.002   1.645  -1.275  0.00  0.00    +0.000 OA
ATOM     13  C   UNL     1      -1.794   0.457  -1.112  0.00  0.00    +0.000 C 
ATOM     14  N   UNL     1      -2.426  -0.562  -1.735  0.00  0.00    +0.000 N 
ATOM     15  C   UNL     1      -1.889  -1.761  -1.379  0.00  0.00    +0.000 C 
ATOM     16  O   UNL     1      -2.255  -2.838  -1.823  0.00  0.00    +0.000 OA
ATOM     17  C   UNL     1      -0.766  -1.514  -0.363  0.00  0.00    +0.000 C 
ATOM     18  N   UNL     1      -0.851  -0.070  -0.265  0.00  0.00    +0.000 N 
ATOM     19  H   UNL     1      -3.175  -0.451  -2.364  0.00  0.00    +0.000 HD
ATOM     20  H   UNL     1      -0.295   0.472   0.341  0.00  0.00    +0.000 HD
ENDBRANCH   1  17
TORSDOF 2
