REMARK  Name = claudia.xyz
REMARK  0 active torsions:
REMARK  status: ('A' for Active; 'I' for Inactive)
REMARK                            x       y       z     vdW  Elec       q    Type
REMARK                         _______ _______ _______ _____ _____    ______ ____
ROOT
ATOM      1  O   UNL     1       2.048  -0.789   1.578  0.00  0.00    +0.000 OA
ATOM      2  C   UNL     1       2.827  -0.423   0.715  0.00  0.00    +0.000 C 
ATOM      3  N   UNL     1       3.684  -1.215   0.032  0.00  0.00    +0.000 N 
ATOM      4  C   UNL     1       4.414  -0.660  -0.976  0.00  0.00    +0.000 C 
ATOM      5  O   UNL     1       5.124  -1.324  -1.714  0.00  0.00    +0.000 OA
ATOM      6  C   UNL     1       4.174   0.820  -1.052  0.00  0.00    +0.000 C 
ATOM      7  C   UNL     1       4.820   1.690  -1.862  0.00  0.00    +0.000 C 
ATOM      8  C   UNL     1       6.012   1.338  -2.728  0.00  0.00    +0.000 C 
ATOM      9  C   UNL     1       7.185   2.187  -2.247  0.00  0.00    +0.000 C 
ATOM     10  O   UNL     1       6.968   3.589  -2.413  0.00  0.00    +0.000 OA
ATOM     11  C   UNL     1       5.679   4.015  -2.205  0.00  0.00    +0.000 A 
ATOM     12  C   UNL     1       5.501   5.397  -2.324  0.00  0.00    +0.000 A 
ATOM     13  C   UNL     1       4.229   5.952  -2.222  0.00  0.00    +0.000 A 
ATOM     14  C   UNL     1       3.131   5.122  -2.028  0.00  0.00    +0.000 A 
ATOM     15  C   UNL     1       3.307   3.739  -1.911  0.00  0.00    +0.000 A 
ATOM     16  C   UNL     1       4.587   3.162  -1.952  0.00  0.00    +0.000 A 
ATOM     17  S   UNL     1       2.981   1.220   0.155  0.00  0.00    +0.000 S 
ATOM     18  H   UNL     1       3.778  -2.169   0.257  0.00  0.00    +0.000 HD
ENDROOT
TORSDOF 0
