REMARK  Name = claudia.xyz
REMARK  5 active torsions:
REMARK  status: ('A' for Active; 'I' for Inactive)
REMARK    1  A    between atoms: C_1  and  C_2
REMARK    2  A    between atoms: C_2  and  C_3
REMARK    3  A    between atoms: C_3  and  C_4
REMARK    4  A    between atoms: C_4  and  C_5
REMARK    5  A    between atoms: C_5  and  C_6
REMARK                            x       y       z     vdW  Elec       q    Type
REMARK                         _______ _______ _______ _____ _____    ______ ____
ROOT
ATOM      1  C   UNL     1       6.589   2.476   1.089  0.00  0.00    +0.000 C 
ATOM      2  C   UNL     1       7.430   3.136   0.282  0.00  0.00    +0.000 C 
ATOM      3  S   UNL     1       7.029   4.197  -1.017  0.00  0.00    +0.000 S 
ATOM      4  C   UNL     1       8.708   4.493  -1.406  0.00  0.00    +0.000 C 
ATOM      5  S   UNL     1       9.282   5.467  -2.615  0.00  0.00    +0.000 S 
ATOM      6  N   UNL     1       9.508   3.793  -0.556  0.00  0.00    +0.000 N 
ATOM      7  C   UNL     1       8.911   3.021   0.401  0.00  0.00    +0.000 C 
ATOM      8  O   UNL     1       9.509   2.345   1.222  0.00  0.00    +0.000 OA
ATOM      9  H   UNL     1      10.489   3.842  -0.628  0.00  0.00    +0.000 HD
ENDROOT
BRANCH   1  10
ATOM     10  C   UNL     1       5.087   2.513   1.069  0.00  0.00    +0.000 C 
BRANCH  10  11
ATOM     11  C   UNL     1       4.508   1.166   0.631  0.00  0.00    +0.000 C 
BRANCH  11  12
ATOM     12  C   UNL     1       2.979   1.193   0.628  0.00  0.00    +0.000 C 
BRANCH  12  14
ATOM     13  C   UNL     1       0.880  -0.128   0.179  0.00  0.00    +0.000 C 
ATOM     14  C   UNL     1       2.400  -0.150   0.184  0.00  0.00    +0.000 C 
ENDBRANCH  12  14
ENDBRANCH  11  12
ENDBRANCH  10  11
ENDBRANCH   1  10
TORSDOF 4
