REMARK  Name = claudia.xyz
REMARK  2 active torsions:
REMARK  status: ('A' for Active; 'I' for Inactive)
REMARK    1  A    between atoms: C_8  and  C_9
REMARK    2  A    between atoms: C_12  and  O_13
REMARK                            x       y       z     vdW  Elec       q    Type
REMARK                         _______ _______ _______ _____ _____    ______ ____
ROOT
ATOM      1  O   UNL     1      -2.033  -1.392  -0.187  0.00  0.00    +0.000 OA
ATOM      2  C   UNL     1      -1.330  -0.659   0.479  0.00  0.00    +0.000 C 
ATOM      3  N   UNL     1      -0.346  -1.008   1.367  0.00  0.00    +0.000 N 
ATOM      4  C   UNL     1       0.242   0.101   1.917  0.00  0.00    +0.000 C 
ATOM      5  S   UNL     1       1.470   0.101   3.016  0.00  0.00    +0.000 S 
ATOM      6  N   UNL     1      -0.371   1.223   1.392  0.00  0.00    +0.000 N 
ATOM      7  C   UNL     1      -1.341   0.838   0.506  0.00  0.00    +0.000 C 
ATOM      8  C   UNL     1      -2.148   1.614  -0.221  0.00  0.00    +0.000 C 
ATOM      9  H   UNL     1      -0.094  -1.935   1.581  0.00  0.00    +0.000 HD
ATOM     10  H   UNL     1      -0.145   2.153   1.619  0.00  0.00    +0.000 HD
ENDROOT
BRANCH   8  11
ATOM     11  C   UNL     1      -2.142   3.077  -0.184  0.00  0.00    +0.000 A 
ATOM     12  C   UNL     1      -1.819   3.794  -1.343  0.00  0.00    +0.000 A 
ATOM     13  C   UNL     1      -1.808   5.192  -1.329  0.00  0.00    +0.000 A 
ATOM     14  C   UNL     1      -2.126   5.866  -0.155  0.00  0.00    +0.000 A 
ATOM     15  C   UNL     1      -2.459   5.169   1.000  0.00  0.00    +0.000 A 
ATOM     16  C   UNL     1      -2.471   3.773   0.986  0.00  0.00    +0.000 A 
BRANCH  14  17
ATOM     17  O   UNL     1      -2.127   7.228  -0.096  0.00  0.00    +0.000 OA
ATOM     18  H   UNL     1      -1.907   7.730  -0.856  0.00  0.00    +0.000 HD
ENDBRANCH  14  17
ENDBRANCH   8  11
TORSDOF 2
