REMARK  Name = claudia.xyz
REMARK  0 active torsions:
REMARK  status: ('A' for Active; 'I' for Inactive)
REMARK                            x       y       z     vdW  Elec       q    Type
REMARK                         _______ _______ _______ _____ _____    ______ ____
ROOT
ATOM      1  O   UNL     1       2.555  -0.419  -0.014  0.00  0.00    +0.000 OA
ATOM      2  C   UNL     1       1.368  -0.123  -0.010  0.00  0.00    +0.000 C 
ATOM      3  C   UNL     1       0.840   1.287   0.010  0.00  0.00    +0.000 C 
ATOM      4  S   UNL     1      -0.965   1.133   0.012  0.00  0.00    +0.000 S 
ATOM      5  C   UNL     1      -0.915  -0.611  -0.011  0.00  0.00    +0.000 C 
ATOM      6  O   UNL     1      -1.905  -1.321  -0.014  0.00  0.00    +0.000 OA
ATOM      7  N   UNL     1       0.366  -1.045  -0.022  0.00  0.00    +0.000 N 
ATOM      8  H   UNL     1       0.570  -2.008  -0.039  0.00  0.00    +0.000 HD
ENDROOT
TORSDOF 0
