REMARK  Name = claudia.xyz
REMARK  3 active torsions:
REMARK  status: ('A' for Active; 'I' for Inactive)
REMARK    1  A    between atoms: C_7  and  C_8
REMARK    2  A    between atoms: C_11  and  O_12
REMARK    3  A    between atoms: C_13  and  O_14
REMARK                            x       y       z     vdW  Elec       q    Type
REMARK                         _______ _______ _______ _____ _____    ______ ____
ROOT
ATOM      1  C   UNL     1       2.005   2.989  -0.070  0.00  0.00    +0.000 A 
ATOM      2  C   UNL     1       1.169   3.652   0.843  0.00  0.00    +0.000 A 
ATOM      3  C   UNL     1       1.142   5.050   0.901  0.00  0.00    +0.000 A 
ATOM      4  C   UNL     1       1.961   5.777   0.047  0.00  0.00    +0.000 A 
ATOM      5  C   UNL     1       2.800   5.121  -0.851  0.00  0.00    +0.000 A 
ATOM      6  C   UNL     1       2.833   3.735  -0.916  0.00  0.00    +0.000 A 
ENDROOT
BRANCH   1  13
ATOM      7  O   UNL     1      -2.084  -0.870  -1.710  0.00  0.00    +0.000 OA
ATOM      8  C   UNL     1      -0.987  -0.512  -1.316  0.00  0.00    +0.000 C 
ATOM      9  N   UNL     1       0.055  -1.327  -1.016  0.00  0.00    +0.000 N 
ATOM     10  C   UNL     1       1.207  -0.757  -0.565  0.00  0.00    +0.000 C 
ATOM     11  O   UNL     1       2.209  -1.375  -0.244  0.00  0.00    +0.000 OA
ATOM     12  C   UNL     1       1.052   0.721  -0.516  0.00  0.00    +0.000 C 
ATOM     13  C   UNL     1       2.052   1.524  -0.132  0.00  0.00    +0.000 C 
ATOM     14  S   UNL     1      -0.532   1.157  -1.040  0.00  0.00    +0.000 S 
ATOM     15  H   UNL     1      -0.020  -2.303  -1.121  0.00  0.00    +0.000 HD
ENDBRANCH   1  13
BRANCH   4  16
ATOM     16  O   UNL     1       1.982   7.144   0.054  0.00  0.00    +0.000 OA
ATOM     17  H   UNL     1       2.545   7.607  -0.534  0.00  0.00    +0.000 HD
ENDBRANCH   4  16
BRANCH   5  18
ATOM     18  O   UNL     1       3.605   5.845  -1.683  0.00  0.00    +0.000 OA
ATOM     19  H   UNL     1       4.169   5.406  -2.288  0.00  0.00    +0.000 HD
ENDBRANCH   5  18
TORSDOF 3
