REMARK  Name = claudia.xyz
REMARK  2 active torsions:
REMARK  status: ('A' for Active; 'I' for Inactive)
REMARK    1  A    between atoms: C_1  and  C_2
REMARK    2  A    between atoms: C_2  and  C_10
REMARK                            x       y       z     vdW  Elec       q    Type
REMARK                         _______ _______ _______ _____ _____    ______ ____
ROOT
ATOM      1  C   UNL     1       1.368  -0.812  -0.567  0.00  0.00    +0.000 C 
ATOM      2  C   UNL     1       2.514   0.010  -0.047  0.00  0.00    +0.000 C 
ATOM      3  C   UNL     1       2.852   0.170   1.243  0.00  0.00    +0.000 C 
ATOM      4  N   UNL     1       3.904   0.926   1.706  0.00  0.00    +0.000 N 
ATOM      5  C   UNL     1       3.957   0.870   3.082  0.00  0.00    +0.000 C 
ATOM      6  S   UNL     1       5.063   1.635   4.035  0.00  0.00    +0.000 S 
ATOM      7  N   UNL     1       2.935   0.074   3.519  0.00  0.00    +0.000 N 
ATOM      8  C   UNL     1       2.193  -0.404   2.470  0.00  0.00    +0.000 C 
ATOM      9  O   UNL     1       1.219  -1.126   2.539  0.00  0.00    +0.000 OA
ATOM     10  H   UNL     1       4.528   1.432   1.137  0.00  0.00    +0.000 HD
ATOM     11  H   UNL     1       2.755  -0.131   4.465  0.00  0.00    +0.000 HD
ENDROOT
BRANCH   2  12
ATOM     12  C   UNL     1       3.299   0.679  -1.102  0.00  0.00    +0.000 A 
ATOM     13  C   UNL     1       2.908   1.931  -1.582  0.00  0.00    +0.000 A 
ATOM     14  C   UNL     1       3.669   2.578  -2.557  0.00  0.00    +0.000 A 
ATOM     15  C   UNL     1       4.835   1.986  -3.068  0.00  0.00    +0.000 A 
ATOM     16  C   UNL     1       5.612   2.626  -4.047  0.00  0.00    +0.000 A 
ATOM     17  C   UNL     1       6.769   2.024  -4.545  0.00  0.00    +0.000 A 
ATOM     18  C   UNL     1       7.163   0.776  -4.071  0.00  0.00    +0.000 A 
ATOM     19  C   UNL     1       6.402   0.127  -3.098  0.00  0.00    +0.000 A 
ATOM     20  C   UNL     1       5.236   0.718  -2.586  0.00  0.00    +0.000 A 
ATOM     21  C   UNL     1       4.461   0.078  -1.605  0.00  0.00    +0.000 A 
ENDBRANCH   2  12
TORSDOF 1
