REMARK  Name = claudia.xyz
REMARK  1 active torsions:
REMARK  status: ('A' for Active; 'I' for Inactive)
REMARK    1  A    between atoms: C_8  and  C_9
REMARK                            x       y       z     vdW  Elec       q    Type
REMARK                         _______ _______ _______ _____ _____    ______ ____
ROOT
ATOM      1  O   UNL     1      -2.281  -1.367   0.104  0.00  0.00    +0.000 OA
ATOM      2  C   UNL     1      -1.294  -0.660   0.061  0.00  0.00    +0.000 C 
ATOM      3  N   UNL     1       0.022  -1.041   0.066  0.00  0.00    +0.000 N 
ATOM      4  C   UNL     1       0.854   0.046  -0.002  0.00  0.00    +0.000 C 
ATOM      5  S   UNL     1       2.502   0.004  -0.017  0.00  0.00    +0.000 S 
ATOM      6  N   UNL     1       0.075   1.185  -0.056  0.00  0.00    +0.000 N 
ATOM      7  C   UNL     1      -1.248   0.834  -0.019  0.00  0.00    +0.000 C 
ATOM      8  C   UNL     1      -2.321   1.628  -0.045  0.00  0.00    +0.000 C 
ATOM      9  H   UNL     1       0.330  -1.975   0.112  0.00  0.00    +0.000 HD
ATOM     10  H   UNL     1       0.418   2.106  -0.113  0.00  0.00    +0.000 HD
ENDROOT
BRANCH   8  11
ATOM     11  C   UNL     1      -2.203   3.039  -0.134  0.00  0.00    +0.000 A 
ATOM     12  C   UNL     1      -2.193   3.836  -1.264  0.00  0.00    +0.000 A 
ATOM     13  C   UNL     1      -2.060   5.222  -0.960  0.00  0.00    +0.000 A 
ATOM     14  C   UNL     1      -1.981   5.444   0.396  0.00  0.00    +0.000 A 
ATOM     15  S   UNL     1      -2.071   3.990   1.290  0.00  0.00    +0.000 S 
ENDBRANCH   8  11
TORSDOF 1
