REMARK  Name = claudia.xyz
REMARK  1 active torsions:
REMARK  status: ('A' for Active; 'I' for Inactive)
REMARK    1  A    between atoms: C_7  and  C_8
REMARK                            x       y       z     vdW  Elec       q    Type
REMARK                         _______ _______ _______ _____ _____    ______ ____
ROOT
ATOM      1  O   UNL     1       6.008  -1.506   0.251  0.00  0.00    +0.000 OA
ATOM      2  C   UNL     1       4.915  -0.977   0.145  0.00  0.00    +0.000 C 
ATOM      3  N   UNL     1       3.738  -1.618  -0.066  0.00  0.00    +0.000 N 
ATOM      4  C   UNL     1       2.606  -0.866  -0.163  0.00  0.00    +0.000 C 
ATOM      5  O   UNL     1       1.487  -1.315  -0.352  0.00  0.00    +0.000 OA
ATOM      6  C   UNL     1       2.944   0.575  -0.004  0.00  0.00    +0.000 C 
ATOM      7  C   UNL     1       2.018   1.542  -0.060  0.00  0.00    +0.000 C 
ATOM      8  S   UNL     1       4.639   0.750   0.243  0.00  0.00    +0.000 S 
ATOM      9  H   UNL     1       3.703  -2.599  -0.146  0.00  0.00    +0.000 HD
ENDROOT
BRANCH   7  10
ATOM     10  C   UNL     1       2.234   3.031   0.084  0.00  0.00    +0.000 C 
ATOM     11  C   UNL     1       1.431   3.570   1.279  0.00  0.00    +0.000 C 
ATOM     12  C   UNL     1       1.569   5.086   1.409  0.00  0.00    +0.000 C 
ATOM     13  C   UNL     1       1.182   5.800   0.118  0.00  0.00    +0.000 C 
ATOM     14  C   UNL     1       1.968   5.268  -1.077  0.00  0.00    +0.000 C 
ATOM     15  C   UNL     1       1.830   3.752  -1.211  0.00  0.00    +0.000 C 
ENDBRANCH   7  10
TORSDOF 1
