REMARK  Name = claudia.xyz
REMARK  1 active torsions:
REMARK  status: ('A' for Active; 'I' for Inactive)
REMARK    1  A    between atoms: C_8  and  C_9
REMARK                            x       y       z     vdW  Elec       q    Type
REMARK                         _______ _______ _______ _____ _____    ______ ____
ROOT
ATOM      1  O   UNL     1      -2.276  -1.360   0.101  0.00  0.00    +0.000 OA
ATOM      2  C   UNL     1      -1.289  -0.652   0.059  0.00  0.00    +0.000 C 
ATOM      3  N   UNL     1       0.027  -1.031   0.064  0.00  0.00    +0.000 N 
ATOM      4  C   UNL     1       0.858   0.057  -0.003  0.00  0.00    +0.000 C 
ATOM      5  S   UNL     1       2.505   0.019  -0.019  0.00  0.00    +0.000 S 
ATOM      6  N   UNL     1       0.076   1.196  -0.057  0.00  0.00    +0.000 N 
ATOM      7  C   UNL     1      -1.246   0.842  -0.019  0.00  0.00    +0.000 C 
ATOM      8  C   UNL     1      -2.322   1.632  -0.044  0.00  0.00    +0.000 C 
ATOM      9  H   UNL     1       0.337  -1.965   0.110  0.00  0.00    +0.000 HD
ATOM     10  H   UNL     1       0.417   2.118  -0.113  0.00  0.00    +0.000 HD
ENDROOT
BRANCH   8  11
ATOM     11  C   UNL     1      -2.211   3.044  -0.131  0.00  0.00    +0.000 A 
ATOM     12  C   UNL     1      -2.192   3.844  -1.261  0.00  0.00    +0.000 A 
ATOM     13  C   UNL     1      -2.073   5.232  -0.952  0.00  0.00    +0.000 A 
ATOM     14  C   UNL     1      -2.015   5.432   0.403  0.00  0.00    +0.000 A 
ATOM     15 BR   UNL     1      -1.859   7.123   1.194  0.00  0.00    +0.000 Br
ATOM     16  S   UNL     1      -2.103   3.997   1.297  0.00  0.00    +0.000 S 
ENDBRANCH   8  11
TORSDOF 1
