REMARK  Name = claudia.xyz
REMARK  6 active torsions:
REMARK  status: ('A' for Active; 'I' for Inactive)
REMARK    1  A    between atoms: C_1  and  C_2
REMARK    2  A    between atoms: C_10  and  C_11
REMARK    3  A    between atoms: C_11  and  C_12
REMARK    4  A    between atoms: C_12  and  C_13
REMARK    5  A    between atoms: C_13  and  C_14
REMARK    6  A    between atoms: C_14  and  N_15
REMARK                            x       y       z     vdW  Elec       q    Type
REMARK                         _______ _______ _______ _____ _____    ______ ____
ROOT
ATOM      1  C   UNL     1       2.977   1.314  -0.523  0.00  0.00    +0.000 C 
ATOM      2  C   UNL     1       2.500   0.063   0.160  0.00  0.00    +0.000 C 
ATOM      3  O   UNL     1       1.337  -0.316   0.003  0.00  0.00    +0.000 OA
ATOM      4  N   UNL     1       3.392  -0.628   0.992  0.00  0.00    +0.000 N 
ATOM      5  C   UNL     1       4.601  -0.255   1.645  0.00  0.00    +0.000 C 
ATOM      6  S   UNL     1       5.506   1.130   1.559  0.00  0.00    +0.000 S 
ATOM      7  N   UNL     1       4.966  -1.267   2.483  0.00  0.00    +0.000 N 
ATOM      8  C   UNL     1       4.064  -2.280   2.476  0.00  0.00    +0.000 C 
ATOM      9  O   UNL     1       4.141  -3.290   3.157  0.00  0.00    +0.000 OA
ATOM     10  C   UNL     1       2.967  -1.940   1.483  0.00  0.00    +0.000 C 
ATOM     11  H   UNL     1       5.787  -1.263   3.027  0.00  0.00    +0.000 HD
ENDROOT
BRANCH  10  12
ATOM     12  C   UNL     1       2.833  -3.025   0.404  0.00  0.00    +0.000 C 
BRANCH  12  13
ATOM     13  C   UNL     1       4.082  -3.199  -0.471  0.00  0.00    +0.000 C 
BRANCH  13  14
ATOM     14  C   UNL     1       3.871  -4.295  -1.522  0.00  0.00    +0.000 C 
BRANCH  14  15
ATOM     15  C   UNL     1       5.111  -4.538  -2.385  0.00  0.00    +0.000 C 
BRANCH  15  16
ATOM     16  N   UNL     1       5.463  -3.359  -3.168  0.00  0.00    +0.000 N 
ATOM     17  H   UNL     1       5.674  -2.585  -2.539  0.00  0.00    +0.000 HD
ATOM     18  H   UNL     1       4.680  -3.105  -3.770  0.00  0.00    +0.000 HD
ATOM     19  H   UNL     1       6.281  -3.564  -3.742  0.00  0.00    +0.000 HD
ENDBRANCH  15  16
ENDBRANCH  14  15
ENDBRANCH  13  14
ENDBRANCH  12  13
ENDBRANCH  10  12
TORSDOF 5
