REMARK  Name = claudia.xyz
REMARK  3 active torsions:
REMARK  status: ('A' for Active; 'I' for Inactive)
REMARK    1  A    between atoms: C_1  and  C_2
REMARK    2  A    between atoms: C_10  and  C_11
REMARK    3  A    between atoms: C_11  and  C_12
REMARK                            x       y       z     vdW  Elec       q    Type
REMARK                         _______ _______ _______ _____ _____    ______ ____
ROOT
ATOM      1  C   UNL     1       1.867   1.193  -1.498  0.00  0.00    +0.000 C 
ATOM      2  C   UNL     1       2.398   0.223  -0.471  0.00  0.00    +0.000 C 
ATOM      3  O   UNL     1       2.150   0.413   0.718  0.00  0.00    +0.000 OA
ATOM      4  N   UNL     1       3.078  -0.892  -0.956  0.00  0.00    +0.000 N 
ATOM      5  C   UNL     1       4.045  -1.643  -0.253  0.00  0.00    +0.000 C 
ATOM      6  S   UNL     1       4.606  -1.506   1.301  0.00  0.00    +0.000 S 
ATOM      7  N   UNL     1       4.568  -2.572  -1.099  0.00  0.00    +0.000 N 
ATOM      8  C   UNL     1       4.051  -2.458  -2.346  0.00  0.00    +0.000 C 
ATOM      9  O   UNL     1       4.404  -3.133  -3.300  0.00  0.00    +0.000 OA
ATOM     10  C   UNL     1       2.966  -1.387  -2.339  0.00  0.00    +0.000 C 
ATOM     11  H   UNL     1       5.238  -3.243  -0.836  0.00  0.00    +0.000 HD
ENDROOT
BRANCH  10  12
ATOM     12  C   UNL     1       1.598  -2.023  -2.625  0.00  0.00    +0.000 C 
BRANCH  12  13
ATOM     13  C   UNL     1       1.241  -1.989  -4.094  0.00  0.00    +0.000 A 
ATOM     14  C   UNL     1       1.640  -3.026  -4.948  0.00  0.00    +0.000 A 
ATOM     15  C   UNL     1       1.328  -2.983  -6.308  0.00  0.00    +0.000 A 
ATOM     16  C   UNL     1       0.615  -1.906  -6.828  0.00  0.00    +0.000 A 
ATOM     17  C   UNL     1       0.211  -0.871  -5.989  0.00  0.00    +0.000 A 
ATOM     18  C   UNL     1       0.522  -0.911  -4.628  0.00  0.00    +0.000 A 
ENDBRANCH  12  13
ENDBRANCH  10  12
TORSDOF 2
