REMARK  Name = claudia.xyz
REMARK  2 active torsions:
REMARK  status: ('A' for Active; 'I' for Inactive)
REMARK    1  A    between atoms: C_8  and  C_9
REMARK    2  A    between atoms: C_12  and  N_13
REMARK                            x       y       z     vdW  Elec       q    Type
REMARK                         _______ _______ _______ _____ _____    ______ ____
ROOT
ATOM      1  O   UNL     1      -2.159  -1.637   0.083  0.00  0.00    +0.000 OA
ATOM      2  C   UNL     1      -1.377  -0.846   0.583  0.00  0.00    +0.000 C 
ATOM      3  N   UNL     1      -0.224  -1.190   1.230  0.00  0.00    +0.000 N 
ATOM      4  C   UNL     1       0.549  -0.191   1.737  0.00  0.00    +0.000 C 
ATOM      5  S   UNL     1       1.971  -0.449   2.544  0.00  0.00    +0.000 S 
ATOM      6  S   UNL     1      -0.191   1.359   1.402  0.00  0.00    +0.000 S 
ATOM      7  C   UNL     1      -1.528   0.633   0.585  0.00  0.00    +0.000 C 
ATOM      8  C   UNL     1      -2.576   1.241   0.015  0.00  0.00    +0.000 C 
ATOM      9  H   UNL     1       0.041  -2.133   1.326  0.00  0.00    +0.000 HD
ENDROOT
BRANCH   8  10
ATOM     10  C   UNL     1      -2.785   2.689  -0.021  0.00  0.00    +0.000 A 
ATOM     11  C   UNL     1      -2.264   3.448  -1.076  0.00  0.00    +0.000 A 
ATOM     12  C   UNL     1      -2.453   4.833  -1.110  0.00  0.00    +0.000 A 
ATOM     13  C   UNL     1      -3.169   5.457  -0.079  0.00  0.00    +0.000 A 
ATOM     14  C   UNL     1      -3.694   4.705   0.980  0.00  0.00    +0.000 A 
ATOM     15  C   UNL     1      -3.499   3.321   1.005  0.00  0.00    +0.000 A 
BRANCH  13  16
ATOM     16  N   UNL     1      -3.371   6.911  -0.110  0.00  0.00    +0.000 N 
ATOM     17  O   UNL     1      -2.891   7.539  -1.064  0.00  0.00    +0.000 OA
ATOM     18  O   UNL     1      -4.012   7.423   0.818  0.00  0.00    +0.000 OA
ENDBRANCH  13  16
ENDBRANCH   8  10
TORSDOF 2
