REMARK  Name = claudia.xyz
REMARK  2 active torsions:
REMARK  status: ('A' for Active; 'I' for Inactive)
REMARK    1  A    between atoms: C_8  and  C_9
REMARK    2  A    between atoms: C_8  and  C_15
REMARK                            x       y       z     vdW  Elec       q    Type
REMARK                         _______ _______ _______ _____ _____    ______ ____
ROOT
ATOM      1  O   UNL     1      -2.054  -1.556   0.000  0.00  0.00    +0.000 OA
ATOM      2  C   UNL     1      -1.191  -0.702  -0.004  0.00  0.00    +0.000 C 
ATOM      3  N   UNL     1       0.163  -0.924  -0.007  0.00  0.00    +0.000 N 
ATOM      4  C   UNL     1       0.859   0.251  -0.024  0.00  0.00    +0.000 C 
ATOM      5  S   UNL     1       2.500   0.405  -0.034  0.00  0.00    +0.000 S 
ATOM      6  N   UNL     1      -0.045   1.290  -0.031  0.00  0.00    +0.000 N 
ATOM      7  C   UNL     1      -1.334   0.801  -0.016  0.00  0.00    +0.000 C 
ATOM      8  C   UNL     1      -2.457   1.549  -0.015  0.00  0.00    +0.000 C 
ATOM      9  H   UNL     1       0.579  -1.816   0.002  0.00  0.00    +0.000 HD
ATOM     10  H   UNL     1       0.194   2.245  -0.045  0.00  0.00    +0.000 HD
ENDROOT
BRANCH   8  11
ATOM     11  C   UNL     1      -2.322   3.026  -0.072  0.00  0.00    +0.000 A 
ATOM     12  C   UNL     1      -1.964   3.666  -1.267  0.00  0.00    +0.000 A 
ATOM     13  C   UNL     1      -1.826   5.055  -1.308  0.00  0.00    +0.000 A 
ATOM     14  C   UNL     1      -2.049   5.811  -0.159  0.00  0.00    +0.000 A 
ATOM     15  C   UNL     1      -2.414   5.183   1.031  0.00  0.00    +0.000 A 
ATOM     16  C   UNL     1      -2.552   3.795   1.076  0.00  0.00    +0.000 A 
ENDBRANCH   8  11
BRANCH   8  17
ATOM     17  C   UNL     1      -3.791   0.911   0.047  0.00  0.00    +0.000 A 
ATOM     18  C   UNL     1      -4.260   0.340   1.238  0.00  0.00    +0.000 A 
ATOM     19  C   UNL     1      -5.533  -0.230   1.293  0.00  0.00    +0.000 A 
ATOM     20  C   UNL     1      -6.349  -0.227   0.163  0.00  0.00    +0.000 A 
ATOM     21  C   UNL     1      -5.895   0.346  -1.023  0.00  0.00    +0.000 A 
ATOM     22  C   UNL     1      -4.621   0.917  -1.081  0.00  0.00    +0.000 A 
ENDBRANCH   8  17
TORSDOF 2
