REMARK  Name = claudia.xyz
REMARK  1 active torsions:
REMARK  status: ('A' for Active; 'I' for Inactive)
REMARK    1  A    between atoms: C_8  and  C_9
REMARK                            x       y       z     vdW  Elec       q    Type
REMARK                         _______ _______ _______ _____ _____    ______ ____
ROOT
ATOM      1  O   UNL     1      -1.963  -1.654   0.222  0.00  0.00    +0.000 OA
ATOM      2  C   UNL     1      -3.087  -1.180   0.250  0.00  0.00    +0.000 C 
ATOM      3  N   UNL     1      -4.238  -1.912   0.337  0.00  0.00    +0.000 N 
ATOM      4  C   UNL     1      -5.423  -1.242   0.358  0.00  0.00    +0.000 C 
ATOM      5  S   UNL     1      -6.897  -1.987   0.462  0.00  0.00    +0.000 S 
ATOM      6  S   UNL     1      -5.131   0.480   0.261  0.00  0.00    +0.000 S 
ATOM      7  C   UNL     1      -3.420   0.271   0.196  0.00  0.00    +0.000 C 
ATOM      8  C   UNL     1      -2.481   1.222   0.112  0.00  0.00    +0.000 C 
ATOM      9  H   UNL     1      -4.211  -2.895   0.382  0.00  0.00    +0.000 HD
ENDROOT
BRANCH   8  10
ATOM     10  C   UNL     1      -2.690   2.718   0.052  0.00  0.00    +0.000 C 
ATOM     11  C   UNL     1      -2.102   3.284  -1.250  0.00  0.00    +0.000 C 
ATOM     12  C   UNL     1      -2.232   4.804  -1.310  0.00  0.00    +0.000 C 
ATOM     13  C   UNL     1      -1.607   5.471  -0.089  0.00  0.00    +0.000 C 
ATOM     14  C   UNL     1      -2.178   4.912   1.211  0.00  0.00    +0.000 C 
ATOM     15  C   UNL     1      -2.048   3.391   1.275  0.00  0.00    +0.000 C 
ENDBRANCH   8  10
TORSDOF 1
