REMARK  Name = claudia.xyz
REMARK  1 active torsions:
REMARK  status: ('A' for Active; 'I' for Inactive)
REMARK    1  A    between atoms: C_8  and  C_9
REMARK                            x       y       z     vdW  Elec       q    Type
REMARK                         _______ _______ _______ _____ _____    ______ ____
ROOT
ATOM      1  O   UNL     1      -2.476  -1.405   0.280  0.00  0.00    +0.000 OA
ATOM      2  C   UNL     1      -3.420  -0.641   0.245  0.00  0.00    +0.000 C 
ATOM      3  N   UNL     1      -4.755  -0.944   0.298  0.00  0.00    +0.000 N 
ATOM      4  C   UNL     1      -5.523   0.189   0.232  0.00  0.00    +0.000 C 
ATOM      5  S   UNL     1      -7.170   0.247   0.267  0.00  0.00    +0.000 S 
ATOM      6  N   UNL     1      -4.681   1.281   0.132  0.00  0.00    +0.000 N 
ATOM      7  C   UNL     1      -3.383   0.856   0.134  0.00  0.00    +0.000 C 
ATOM      8  C   UNL     1      -2.275   1.597   0.057  0.00  0.00    +0.000 C 
ATOM      9  H   UNL     1      -5.116  -1.857   0.373  0.00  0.00    +0.000 HD
ATOM     10  H   UNL     1      -4.972   2.219   0.070  0.00  0.00    +0.000 HD
ENDROOT
BRANCH   8  11
ATOM     11  C   UNL     1      -2.203   3.099  -0.054  0.00  0.00    +0.000 C 
ATOM     12  C   UNL     1      -1.488   3.504  -1.353  0.00  0.00    +0.000 C 
ATOM     13  C   UNL     1      -1.337   5.020  -1.462  0.00  0.00    +0.000 C 
ATOM     14  C   UNL     1      -0.636   5.606  -0.240  0.00  0.00    +0.000 C 
ATOM     15  C   UNL     1      -1.336   5.206   1.055  0.00  0.00    +0.000 C 
ATOM     16  C   UNL     1      -1.486   3.690   1.169  0.00  0.00    +0.000 C 
ENDBRANCH   8  11
TORSDOF 1
