REMARK  Name = claudia.xyz
REMARK  1 active torsions:
REMARK  status: ('A' for Active; 'I' for Inactive)
REMARK    1  A    between atoms: C_7  and  C_8
REMARK                            x       y       z     vdW  Elec       q    Type
REMARK                         _______ _______ _______ _____ _____    ______ ____
ROOT
ATOM      1  O   UNL     1      -2.280  -1.009   0.847  0.00  0.00    +0.000 OA
ATOM      2  C   UNL     1      -1.174  -0.596   0.542  0.00  0.00    +0.000 C 
ATOM      3  N   UNL     1      -0.140  -1.349   0.092  0.00  0.00    +0.000 N 
ATOM      4  C   UNL     1       1.034  -0.721  -0.196  0.00  0.00    +0.000 C 
ATOM      5  O   UNL     1       2.039  -1.281  -0.602  0.00  0.00    +0.000 OA
ATOM      6  C   UNL     1       0.905   0.740   0.063  0.00  0.00    +0.000 C 
ATOM      7  C   UNL     1       1.928   1.569  -0.185  0.00  0.00    +0.000 C 
ATOM      8  S   UNL     1      -0.687   1.083   0.630  0.00  0.00    +0.000 S 
ATOM      9  H   UNL     1      -0.235  -2.322  -0.024  0.00  0.00    +0.000 HD
ENDROOT
BRANCH   7  10
ATOM     10  C   UNL     1       1.912   2.981   0.008  0.00  0.00    +0.000 A 
ATOM     11  C   UNL     1       1.386   3.760   1.029  0.00  0.00    +0.000 A 
ATOM     12  C   UNL     1       1.601   5.159   0.838  0.00  0.00    +0.000 A 
ATOM     13  C   UNL     1       2.303   5.396  -0.313  0.00  0.00    +0.000 A 
ATOM     14 BR   UNL     1       2.781   7.110  -0.899  0.00  0.00    +0.000 Br
ATOM     15  S   UNL     1       2.709   3.986  -1.151  0.00  0.00    +0.000 S 
ENDBRANCH   7  10
TORSDOF 1
