REMARK  Name = claudia.xyz
REMARK  1 active torsions:
REMARK  status: ('A' for Active; 'I' for Inactive)
REMARK    1  A    between atoms: C_8  and  C_9
REMARK                            x       y       z     vdW  Elec       q    Type
REMARK                         _______ _______ _______ _____ _____    ______ ____
ROOT
ATOM      1  O   UNL     1      -2.240  -1.593  -0.090  0.00  0.00    +0.000 OA
ATOM      2  C   UNL     1      -1.300  -0.820   0.001  0.00  0.00    +0.000 C 
ATOM      3  N   UNL     1       0.008  -1.195   0.121  0.00  0.00    +0.000 N 
ATOM      4  C   UNL     1       0.950  -0.217   0.209  0.00  0.00    +0.000 C 
ATOM      5  S   UNL     1       2.571  -0.514   0.357  0.00  0.00    +0.000 S 
ATOM      6  S   UNL     1       0.180   1.352   0.141  0.00  0.00    +0.000 S 
ATOM      7  C   UNL     1      -1.398   0.663  -0.001  0.00  0.00    +0.000 C 
ATOM      8  C   UNL     1      -2.579   1.282  -0.123  0.00  0.00    +0.000 C 
ATOM      9  H   UNL     1       0.263  -2.146   0.143  0.00  0.00    +0.000 HD
ENDROOT
BRANCH   8  10
ATOM     10  C   UNL     1      -2.721   2.696  -0.136  0.00  0.00    +0.000 A 
ATOM     11  S   UNL     1      -3.137   3.483  -1.613  0.00  0.00    +0.000 S 
ATOM     12  C   UNL     1      -3.124   5.029  -0.882  0.00  0.00    +0.000 A 
ATOM     13  C   UNL     1      -2.837   4.964   0.463  0.00  0.00    +0.000 A 
ATOM     14  C   UNL     1      -2.618   3.626   0.881  0.00  0.00    +0.000 A 
ATOM     15 BR   UNL     1      -2.243   3.240   2.697  0.00  0.00    +0.000 Br
ENDBRANCH   8  10
TORSDOF 1
