REMARK  Name = claudia.xyz
REMARK  3 active torsions:
REMARK  status: ('A' for Active; 'I' for Inactive)
REMARK    1  A    between atoms: C_1  and  O_2
REMARK    2  A    between atoms: O_2  and  C_3
REMARK    3  A    between atoms: C_7  and  C_8
REMARK                            x       y       z     vdW  Elec       q    Type
REMARK                         _______ _______ _______ _____ _____    ______ ____
ROOT
ATOM      1  C   UNL     1       6.266   1.705  -2.839  0.00  0.00    +0.000 C 
ATOM      2  C   UNL     1       7.412   1.570  -2.167  0.00  0.00    +0.000 C 
ATOM      3  N   UNL     1       7.610   1.603  -0.814  0.00  0.00    +0.000 N 
ATOM      4  C   UNL     1       8.955   1.439  -0.542  0.00  0.00    +0.000 C 
ATOM      5  S   UNL     1       9.640   1.423   0.957  0.00  0.00    +0.000 S 
ATOM      6  N   UNL     1       9.620   1.295  -1.732  0.00  0.00    +0.000 N 
ATOM      7  C   UNL     1       8.757   1.368  -2.794  0.00  0.00    +0.000 C 
ATOM      8  O   UNL     1       9.018   1.293  -3.978  0.00  0.00    +0.000 OA
ATOM      9  H   UNL     1       6.905   1.726  -0.138  0.00  0.00    +0.000 HD
ATOM     10  H   UNL     1      10.591   1.157  -1.813  0.00  0.00    +0.000 HD
ENDROOT
BRANCH   1  15
ATOM     11  C   UNL     1       3.161   1.170  -0.745  0.00  0.00    +0.000 A 
ATOM     12  C   UNL     1       2.437   2.321  -1.058  0.00  0.00    +0.000 A 
ATOM     13  C   UNL     1       2.963   3.257  -1.953  0.00  0.00    +0.000 A 
ATOM     14  C   UNL     1       4.215   3.050  -2.533  0.00  0.00    +0.000 A 
ATOM     15  C   UNL     1       4.955   1.909  -2.216  0.00  0.00    +0.000 A 
ATOM     16  C   UNL     1       4.415   0.969  -1.329  0.00  0.00    +0.000 A 
BRANCH  11  18
ATOM     17  C   UNL     1       1.478   0.314   0.700  0.00  0.00    +0.000 C 
ATOM     18  O   UNL     1       2.763   0.177   0.108  0.00  0.00    +0.000 OA
ENDBRANCH  11  18
ENDBRANCH   1  15
TORSDOF 2
