REMARK  Name = claudia.xyz
REMARK  4 active torsions:
REMARK  status: ('A' for Active; 'I' for Inactive)
REMARK    1  A    between atoms: C_1  and  C_2
REMARK    2  A    between atoms: C_2  and  C_3
REMARK    3  A    between atoms: C_3  and  C_4
REMARK    4  A    between atoms: C_4  and  C_5
REMARK                            x       y       z     vdW  Elec       q    Type
REMARK                         _______ _______ _______ _____ _____    ______ ____
ROOT
ATOM      1  C   UNL     1       5.031  -1.044  -2.733  0.00  0.00    +0.000 C 
ATOM      2  C   UNL     1       5.751  -2.151  -2.927  0.00  0.00    +0.000 C 
ATOM      3  N   UNL     1       6.168  -3.056  -1.993  0.00  0.00    +0.000 N 
ATOM      4  C   UNL     1       6.887  -4.060  -2.614  0.00  0.00    +0.000 C 
ATOM      5  S   UNL     1       7.575  -5.356  -1.861  0.00  0.00    +0.000 S 
ATOM      6  N   UNL     1       6.929  -3.794  -3.957  0.00  0.00    +0.000 N 
ATOM      7  C   UNL     1       6.256  -2.639  -4.254  0.00  0.00    +0.000 C 
ATOM      8  O   UNL     1       6.100  -2.120  -5.342  0.00  0.00    +0.000 OA
ATOM      9  H   UNL     1       5.986  -3.001  -1.027  0.00  0.00    +0.000 HD
ATOM     10  H   UNL     1       7.383  -4.360  -4.622  0.00  0.00    +0.000 HD
ENDROOT
BRANCH   1  11
ATOM     11  C   UNL     1       4.518  -0.528  -1.420  0.00  0.00    +0.000 C 
BRANCH  11  12
ATOM     12  C   UNL     1       2.988  -0.521  -1.389  0.00  0.00    +0.000 C 
BRANCH  12  14
ATOM     13  C   UNL     1       0.944   0.035  -0.024  0.00  0.00    +0.000 C 
ATOM     14  C   UNL     1       2.464   0.019  -0.058  0.00  0.00    +0.000 C 
ENDBRANCH  12  14
ENDBRANCH  11  12
ENDBRANCH   1  11
TORSDOF 3
