REMARK  Name = claudia.xyz
REMARK  2 active torsions:
REMARK  status: ('A' for Active; 'I' for Inactive)
REMARK    1  A    between atoms: C_7  and  C_8
REMARK    2  A    between atoms: C_8  and  C_9
REMARK                            x       y       z     vdW  Elec       q    Type
REMARK                         _______ _______ _______ _____ _____    ______ ____
ROOT
ATOM      1  O   UNL     1       2.225  -1.258  -0.297  0.00  0.00    +0.000 OA
ATOM      2  C   UNL     1       1.328  -0.452  -0.101  0.00  0.00    +0.000 C 
ATOM      3  N   UNL     1       0.032  -0.789   0.162  0.00  0.00    +0.000 N 
ATOM      4  C   UNL     1      -0.726   0.317   0.330  0.00  0.00    +0.000 C 
ATOM      5  S   UNL     1      -2.332   0.343   0.691  0.00  0.00    +0.000 S 
ATOM      6  N   UNL     1       0.059   1.427   0.155  0.00  0.00    +0.000 N 
ATOM      7  C   UNL     1       1.448   1.080  -0.102  0.00  0.00    +0.000 C 
ATOM      8  H   UNL     1      -0.305  -1.713   0.222  0.00  0.00    +0.000 HD
ATOM      9  H   UNL     1      -0.277   2.352   0.199  0.00  0.00    +0.000 HD
ENDROOT
BRANCH   7  10
ATOM     10  C   UNL     1       1.937   1.620  -1.444  0.00  0.00    +0.000 C 
BRANCH  10  11
ATOM     11  C   UNL     1       3.432   1.830  -1.465  0.00  0.00    +0.000 A 
ATOM     12  C   UNL     1       4.295   0.792  -1.839  0.00  0.00    +0.000 A 
ATOM     13  C   UNL     1       5.677   0.985  -1.838  0.00  0.00    +0.000 A 
ATOM     14  C   UNL     1       6.210   2.216  -1.461  0.00  0.00    +0.000 A 
ATOM     15  C   UNL     1       5.362   3.255  -1.083  0.00  0.00    +0.000 A 
ATOM     16  C   UNL     1       3.979   3.063  -1.082  0.00  0.00    +0.000 A 
ENDBRANCH  10  11
ENDBRANCH   7  10
TORSDOF 2
