REMARK  Name = claudia.xyz
REMARK  2 active torsions:
REMARK  status: ('A' for Active; 'I' for Inactive)
REMARK    1  A    between atoms: C_7  and  C_8
REMARK    2  A    between atoms: C_9  and  C_10
REMARK                            x       y       z     vdW  Elec       q    Type
REMARK                         _______ _______ _______ _____ _____    ______ ____
ROOT
ATOM      1  O   UNL     1      -2.436  -0.876   0.116  0.00  0.00    +0.000 OA
ATOM      2  C   UNL     1      -1.274  -0.509   0.095  0.00  0.00    +0.000 C 
ATOM      3  N   UNL     1      -0.187  -1.318   0.031  0.00  0.00    +0.000 N 
ATOM      4  C   UNL     1       1.046  -0.738   0.016  0.00  0.00    +0.000 C 
ATOM      5  O   UNL     1       2.101  -1.348  -0.039  0.00  0.00    +0.000 OA
ATOM      6  C   UNL     1       0.906   0.742   0.078  0.00  0.00    +0.000 C 
ATOM      7  C   UNL     1       1.973   1.552   0.078  0.00  0.00    +0.000 C 
ATOM      8  S   UNL     1      -0.764   1.165   0.144  0.00  0.00    +0.000 S 
ATOM      9  H   UNL     1      -0.286  -2.297  -0.004  0.00  0.00    +0.000 HD
ENDROOT
BRANCH   7  10
ATOM     10  C   UNL     1       1.954   3.000   0.136  0.00  0.00    +0.000 C 
ATOM     11  C   UNL     1       3.074   3.741   0.133  0.00  0.00    +0.000 C 
BRANCH  11  12
ATOM     12  C   UNL     1       3.015   5.161   0.194  0.00  0.00    +0.000 A 
ATOM     13  C   UNL     1       4.067   6.072   0.199  0.00  0.00    +0.000 A 
ATOM     14  C   UNL     1       3.519   7.374   0.272  0.00  0.00    +0.000 A 
ATOM     15  C   UNL     1       2.159   7.205   0.308  0.00  0.00    +0.000 A 
ATOM     16  O   UNL     1       1.845   5.889   0.262  0.00  0.00    +0.000 OA
ENDBRANCH  11  12
ENDBRANCH   7  10
TORSDOF 2
