REMARK  Name = claudia.xyz
REMARK  1 active torsions:
REMARK  status: ('A' for Active; 'I' for Inactive)
REMARK    1  A    between atoms: C_8  and  C_9
REMARK                            x       y       z     vdW  Elec       q    Type
REMARK                         _______ _______ _______ _____ _____    ______ ____
ROOT
ATOM      1  O   UNL     1      -2.199  -1.515   0.625  0.00  0.00    +0.000 OA
ATOM      2  C   UNL     1      -1.286  -0.804   0.237  0.00  0.00    +0.000 C 
ATOM      3  N   UNL     1      -0.025  -1.247  -0.045  0.00  0.00    +0.000 N 
ATOM      4  C   UNL     1       0.893  -0.338  -0.470  0.00  0.00    +0.000 C 
ATOM      5  S   UNL     1       2.458  -0.721  -0.851  0.00  0.00    +0.000 S 
ATOM      6  S   UNL     1       0.161   1.247  -0.546  0.00  0.00    +0.000 S 
ATOM      7  C   UNL     1      -1.371   0.663  -0.004  0.00  0.00    +0.000 C 
ATOM      8  C   UNL     1      -2.508   1.329   0.240  0.00  0.00    +0.000 C 
ATOM      9  H   UNL     1       0.213  -2.197   0.057  0.00  0.00    +0.000 HD
ENDROOT
BRANCH   8  10
ATOM     10  C   UNL     1      -2.700   2.729   0.063  0.00  0.00    +0.000 A 
ATOM     11  C   UNL     1      -2.285   3.589  -0.941  0.00  0.00    +0.000 A 
ATOM     12  C   UNL     1      -2.707   4.936  -0.740  0.00  0.00    +0.000 A 
ATOM     13  C   UNL     1      -3.453   5.073   0.406  0.00  0.00    +0.000 A 
ATOM     14  S   UNL     1      -3.649   3.588   1.222  0.00  0.00    +0.000 S 
ENDBRANCH   8  10
TORSDOF 1
