REMARK  Name = claudia.xyz
REMARK  3 active torsions:
REMARK  status: ('A' for Active; 'I' for Inactive)
REMARK    1  A    between atoms: C_1  and  O_2
REMARK    2  A    between atoms: O_2  and  C_3
REMARK    3  A    between atoms: C_6  and  C_7
REMARK                            x       y       z     vdW  Elec       q    Type
REMARK                         _______ _______ _______ _____ _____    ______ ____
ROOT
ATOM      1  C   UNL     1       5.612  -2.631   3.771  0.00  0.00    +0.000 C 
ATOM      2  C   UNL     1       6.421  -3.658   3.480  0.00  0.00    +0.000 C 
ATOM      3  S   UNL     1       6.649  -4.447   1.961  0.00  0.00    +0.000 S 
ATOM      4  C   UNL     1       7.850  -5.538   2.613  0.00  0.00    +0.000 C 
ATOM      5  S   UNL     1       8.657  -6.723   1.787  0.00  0.00    +0.000 S 
ATOM      6  N   UNL     1       8.038  -5.278   3.936  0.00  0.00    +0.000 N 
ATOM      7  C   UNL     1       7.309  -4.271   4.504  0.00  0.00    +0.000 C 
ATOM      8  O   UNL     1       7.382  -3.935   5.675  0.00  0.00    +0.000 OA
ATOM      9  H   UNL     1       8.681  -5.800   4.468  0.00  0.00    +0.000 HD
ENDROOT
BRANCH   1  13
ATOM     10  C   UNL     1       2.997  -0.592   1.068  0.00  0.00    +0.000 A 
ATOM     11  C   UNL     1       2.764  -1.930   1.385  0.00  0.00    +0.000 A 
ATOM     12  C   UNL     1       3.617  -2.604   2.267  0.00  0.00    +0.000 A 
ATOM     13  C   UNL     1       4.716  -1.949   2.834  0.00  0.00    +0.000 A 
ATOM     14  C   UNL     1       4.941  -0.606   2.524  0.00  0.00    +0.000 A 
ATOM     15  C   UNL     1       4.088   0.065   1.644  0.00  0.00    +0.000 A 
BRANCH  10  17
ATOM     16  C   UNL     1       1.134  -0.448  -0.400  0.00  0.00    +0.000 C 
ATOM     17  O   UNL     1       2.245   0.180   0.226  0.00  0.00    +0.000 OA
ENDBRANCH  10  17
ENDBRANCH   1  13
TORSDOF 2
